*SPEF "ieee 1481-1999"
*DESIGN "tt_um_loopback"
*DATE "11:11:11 Fri 11 11, 1111"
*VENDOR "OpenRCX"
*PROGRAM "Parallel Extraction"
*VERSION "1.0"
*DESIGN_FLOW "NAME_SCOPE LOCAL" "PIN_CAP NONE"
*DIVIDER /
*DELIMITER :
*BUS_DELIMITER []
*T_UNIT 1 NS
*C_UNIT 1 PF
*R_UNIT 1 OHM
*L_UNIT 1 HENRY

*NAME_MAP
*3 clk
*4 ena
*5 rst_n
*6 ui_in[0]
*7 ui_in[1]
*8 ui_in[2]
*9 ui_in[3]
*10 ui_in[4]
*11 ui_in[5]
*12 ui_in[6]
*13 ui_in[7]
*14 uio_in[0]
*15 uio_in[1]
*16 uio_in[2]
*17 uio_in[3]
*18 uio_in[4]
*19 uio_in[5]
*20 uio_in[6]
*21 uio_in[7]
*22 net13
*23 net14
*24 net15
*25 net16
*26 net1
*27 net2
*28 net3
*29 net4
*30 net5
*31 net6
*32 net7
*33 net8
*34 net9
*35 net10
*36 net11
*37 net12
*38 uo_out[0]
*39 uo_out[1]
*40 uo_out[2]
*41 uo_out[3]
*42 uo_out[4]
*43 uo_out[5]
*44 uo_out[6]
*45 uo_out[7]
*46 _00_
*47 FILLER_0_109
*48 FILLER_0_113
*49 FILLER_0_125
*50 FILLER_0_137
*51 FILLER_0_141
*52 FILLER_0_15
*53 FILLER_0_153
*54 FILLER_0_165
*55 FILLER_0_169
*56 FILLER_0_181
*57 FILLER_0_193
*58 FILLER_0_197
*59 FILLER_0_209
*60 FILLER_0_221
*61 FILLER_0_225
*62 FILLER_0_237
*63 FILLER_0_249
*64 FILLER_0_253
*65 FILLER_0_265
*66 FILLER_0_27
*67 FILLER_0_277
*68 FILLER_0_281
*69 FILLER_0_29
*70 FILLER_0_293
*71 FILLER_0_3
*72 FILLER_0_305
*73 FILLER_0_309
*74 FILLER_0_321
*75 FILLER_0_333
*76 FILLER_0_337
*77 FILLER_0_349
*78 FILLER_0_41
*79 FILLER_0_53
*80 FILLER_0_57
*81 FILLER_0_69
*82 FILLER_0_81
*83 FILLER_0_85
*84 FILLER_0_97
*85 FILLER_10_109
*86 FILLER_10_121
*87 FILLER_10_133
*88 FILLER_10_139
*89 FILLER_10_141
*90 FILLER_10_15
*91 FILLER_10_153
*92 FILLER_10_165
*93 FILLER_10_177
*94 FILLER_10_189
*95 FILLER_10_195
*96 FILLER_10_197
*97 FILLER_10_209
*98 FILLER_10_221
*99 FILLER_10_233
*100 FILLER_10_245
*101 FILLER_10_251
*102 FILLER_10_253
*103 FILLER_10_265
*104 FILLER_10_27
*105 FILLER_10_277
*106 FILLER_10_289
*107 FILLER_10_29
*108 FILLER_10_3
*109 FILLER_10_301
*110 FILLER_10_307
*111 FILLER_10_309
*112 FILLER_10_321
*113 FILLER_10_333
*114 FILLER_10_345
*115 FILLER_10_349
*116 FILLER_10_41
*117 FILLER_10_53
*118 FILLER_10_65
*119 FILLER_10_77
*120 FILLER_10_83
*121 FILLER_10_85
*122 FILLER_10_97
*123 FILLER_11_105
*124 FILLER_11_111
*125 FILLER_11_113
*126 FILLER_11_125
*127 FILLER_11_137
*128 FILLER_11_149
*129 FILLER_11_15
*130 FILLER_11_161
*131 FILLER_11_167
*132 FILLER_11_169
*133 FILLER_11_181
*134 FILLER_11_193
*135 FILLER_11_205
*136 FILLER_11_217
*137 FILLER_11_223
*138 FILLER_11_225
*139 FILLER_11_237
*140 FILLER_11_249
*141 FILLER_11_261
*142 FILLER_11_27
*143 FILLER_11_273
*144 FILLER_11_279
*145 FILLER_11_281
*146 FILLER_11_293
*147 FILLER_11_3
*148 FILLER_11_305
*149 FILLER_11_317
*150 FILLER_11_329
*151 FILLER_11_335
*152 FILLER_11_337
*153 FILLER_11_349
*154 FILLER_11_39
*155 FILLER_11_51
*156 FILLER_11_55
*157 FILLER_11_57
*158 FILLER_11_69
*159 FILLER_11_81
*160 FILLER_11_93
*161 FILLER_12_109
*162 FILLER_12_121
*163 FILLER_12_133
*164 FILLER_12_139
*165 FILLER_12_141
*166 FILLER_12_15
*167 FILLER_12_153
*168 FILLER_12_165
*169 FILLER_12_177
*170 FILLER_12_189
*171 FILLER_12_195
*172 FILLER_12_197
*173 FILLER_12_209
*174 FILLER_12_221
*175 FILLER_12_233
*176 FILLER_12_245
*177 FILLER_12_251
*178 FILLER_12_253
*179 FILLER_12_265
*180 FILLER_12_27
*181 FILLER_12_277
*182 FILLER_12_289
*183 FILLER_12_29
*184 FILLER_12_3
*185 FILLER_12_301
*186 FILLER_12_307
*187 FILLER_12_309
*188 FILLER_12_321
*189 FILLER_12_333
*190 FILLER_12_345
*191 FILLER_12_349
*192 FILLER_12_41
*193 FILLER_12_53
*194 FILLER_12_65
*195 FILLER_12_77
*196 FILLER_12_83
*197 FILLER_12_85
*198 FILLER_12_97
*199 FILLER_13_105
*200 FILLER_13_111
*201 FILLER_13_113
*202 FILLER_13_125
*203 FILLER_13_137
*204 FILLER_13_149
*205 FILLER_13_15
*206 FILLER_13_161
*207 FILLER_13_167
*208 FILLER_13_169
*209 FILLER_13_181
*210 FILLER_13_193
*211 FILLER_13_205
*212 FILLER_13_217
*213 FILLER_13_223
*214 FILLER_13_225
*215 FILLER_13_237
*216 FILLER_13_249
*217 FILLER_13_261
*218 FILLER_13_27
*219 FILLER_13_273
*220 FILLER_13_279
*221 FILLER_13_281
*222 FILLER_13_293
*223 FILLER_13_3
*224 FILLER_13_305
*225 FILLER_13_317
*226 FILLER_13_329
*227 FILLER_13_335
*228 FILLER_13_337
*229 FILLER_13_349
*230 FILLER_13_39
*231 FILLER_13_51
*232 FILLER_13_55
*233 FILLER_13_57
*234 FILLER_13_69
*235 FILLER_13_81
*236 FILLER_13_93
*237 FILLER_14_109
*238 FILLER_14_121
*239 FILLER_14_133
*240 FILLER_14_139
*241 FILLER_14_141
*242 FILLER_14_15
*243 FILLER_14_153
*244 FILLER_14_165
*245 FILLER_14_177
*246 FILLER_14_189
*247 FILLER_14_195
*248 FILLER_14_197
*249 FILLER_14_209
*250 FILLER_14_221
*251 FILLER_14_233
*252 FILLER_14_245
*253 FILLER_14_251
*254 FILLER_14_253
*255 FILLER_14_265
*256 FILLER_14_27
*257 FILLER_14_277
*258 FILLER_14_289
*259 FILLER_14_29
*260 FILLER_14_3
*261 FILLER_14_301
*262 FILLER_14_307
*263 FILLER_14_309
*264 FILLER_14_321
*265 FILLER_14_333
*266 FILLER_14_345
*267 FILLER_14_349
*268 FILLER_14_41
*269 FILLER_14_53
*270 FILLER_14_65
*271 FILLER_14_77
*272 FILLER_14_83
*273 FILLER_14_85
*274 FILLER_14_97
*275 FILLER_15_105
*276 FILLER_15_111
*277 FILLER_15_113
*278 FILLER_15_125
*279 FILLER_15_137
*280 FILLER_15_149
*281 FILLER_15_15
*282 FILLER_15_161
*283 FILLER_15_167
*284 FILLER_15_169
*285 FILLER_15_181
*286 FILLER_15_193
*287 FILLER_15_205
*288 FILLER_15_217
*289 FILLER_15_223
*290 FILLER_15_225
*291 FILLER_15_237
*292 FILLER_15_249
*293 FILLER_15_261
*294 FILLER_15_27
*295 FILLER_15_273
*296 FILLER_15_279
*297 FILLER_15_281
*298 FILLER_15_293
*299 FILLER_15_3
*300 FILLER_15_305
*301 FILLER_15_317
*302 FILLER_15_329
*303 FILLER_15_335
*304 FILLER_15_337
*305 FILLER_15_349
*306 FILLER_15_39
*307 FILLER_15_51
*308 FILLER_15_55
*309 FILLER_15_57
*310 FILLER_15_69
*311 FILLER_15_81
*312 FILLER_15_93
*313 FILLER_16_109
*314 FILLER_16_121
*315 FILLER_16_133
*316 FILLER_16_139
*317 FILLER_16_141
*318 FILLER_16_15
*319 FILLER_16_153
*320 FILLER_16_165
*321 FILLER_16_177
*322 FILLER_16_189
*323 FILLER_16_195
*324 FILLER_16_197
*325 FILLER_16_209
*326 FILLER_16_221
*327 FILLER_16_233
*328 FILLER_16_245
*329 FILLER_16_251
*330 FILLER_16_253
*331 FILLER_16_265
*332 FILLER_16_27
*333 FILLER_16_277
*334 FILLER_16_289
*335 FILLER_16_29
*336 FILLER_16_3
*337 FILLER_16_301
*338 FILLER_16_307
*339 FILLER_16_309
*340 FILLER_16_321
*341 FILLER_16_333
*342 FILLER_16_345
*343 FILLER_16_349
*344 FILLER_16_41
*345 FILLER_16_53
*346 FILLER_16_65
*347 FILLER_16_77
*348 FILLER_16_83
*349 FILLER_16_85
*350 FILLER_16_97
*351 FILLER_17_105
*352 FILLER_17_111
*353 FILLER_17_113
*354 FILLER_17_125
*355 FILLER_17_137
*356 FILLER_17_149
*357 FILLER_17_15
*358 FILLER_17_161
*359 FILLER_17_167
*360 FILLER_17_169
*361 FILLER_17_181
*362 FILLER_17_193
*363 FILLER_17_205
*364 FILLER_17_217
*365 FILLER_17_223
*366 FILLER_17_225
*367 FILLER_17_237
*368 FILLER_17_249
*369 FILLER_17_261
*370 FILLER_17_27
*371 FILLER_17_273
*372 FILLER_17_279
*373 FILLER_17_281
*374 FILLER_17_293
*375 FILLER_17_3
*376 FILLER_17_305
*377 FILLER_17_317
*378 FILLER_17_329
*379 FILLER_17_335
*380 FILLER_17_337
*381 FILLER_17_349
*382 FILLER_17_39
*383 FILLER_17_51
*384 FILLER_17_55
*385 FILLER_17_57
*386 FILLER_17_69
*387 FILLER_17_81
*388 FILLER_17_93
*389 FILLER_18_109
*390 FILLER_18_121
*391 FILLER_18_133
*392 FILLER_18_139
*393 FILLER_18_141
*394 FILLER_18_15
*395 FILLER_18_153
*396 FILLER_18_165
*397 FILLER_18_177
*398 FILLER_18_189
*399 FILLER_18_195
*400 FILLER_18_197
*401 FILLER_18_209
*402 FILLER_18_221
*403 FILLER_18_233
*404 FILLER_18_245
*405 FILLER_18_251
*406 FILLER_18_253
*407 FILLER_18_265
*408 FILLER_18_27
*409 FILLER_18_277
*410 FILLER_18_289
*411 FILLER_18_29
*412 FILLER_18_3
*413 FILLER_18_301
*414 FILLER_18_307
*415 FILLER_18_309
*416 FILLER_18_321
*417 FILLER_18_333
*418 FILLER_18_345
*419 FILLER_18_349
*420 FILLER_18_41
*421 FILLER_18_53
*422 FILLER_18_65
*423 FILLER_18_77
*424 FILLER_18_83
*425 FILLER_18_85
*426 FILLER_18_97
*427 FILLER_19_105
*428 FILLER_19_111
*429 FILLER_19_113
*430 FILLER_19_125
*431 FILLER_19_137
*432 FILLER_19_149
*433 FILLER_19_15
*434 FILLER_19_161
*435 FILLER_19_167
*436 FILLER_19_169
*437 FILLER_19_181
*438 FILLER_19_193
*439 FILLER_19_205
*440 FILLER_19_217
*441 FILLER_19_223
*442 FILLER_19_225
*443 FILLER_19_237
*444 FILLER_19_249
*445 FILLER_19_261
*446 FILLER_19_27
*447 FILLER_19_273
*448 FILLER_19_279
*449 FILLER_19_281
*450 FILLER_19_293
*451 FILLER_19_3
*452 FILLER_19_305
*453 FILLER_19_317
*454 FILLER_19_329
*455 FILLER_19_335
*456 FILLER_19_337
*457 FILLER_19_349
*458 FILLER_19_39
*459 FILLER_19_51
*460 FILLER_19_55
*461 FILLER_19_57
*462 FILLER_19_69
*463 FILLER_19_81
*464 FILLER_19_93
*465 FILLER_1_105
*466 FILLER_1_111
*467 FILLER_1_113
*468 FILLER_1_125
*469 FILLER_1_137
*470 FILLER_1_149
*471 FILLER_1_15
*472 FILLER_1_161
*473 FILLER_1_167
*474 FILLER_1_169
*475 FILLER_1_181
*476 FILLER_1_193
*477 FILLER_1_205
*478 FILLER_1_217
*479 FILLER_1_223
*480 FILLER_1_225
*481 FILLER_1_237
*482 FILLER_1_249
*483 FILLER_1_261
*484 FILLER_1_27
*485 FILLER_1_273
*486 FILLER_1_279
*487 FILLER_1_281
*488 FILLER_1_293
*489 FILLER_1_3
*490 FILLER_1_305
*491 FILLER_1_317
*492 FILLER_1_329
*493 FILLER_1_335
*494 FILLER_1_337
*495 FILLER_1_349
*496 FILLER_1_39
*497 FILLER_1_51
*498 FILLER_1_55
*499 FILLER_1_57
*500 FILLER_1_69
*501 FILLER_1_81
*502 FILLER_1_93
*503 FILLER_20_109
*504 FILLER_20_121
*505 FILLER_20_133
*506 FILLER_20_139
*507 FILLER_20_141
*508 FILLER_20_15
*509 FILLER_20_153
*510 FILLER_20_165
*511 FILLER_20_177
*512 FILLER_20_189
*513 FILLER_20_195
*514 FILLER_20_197
*515 FILLER_20_209
*516 FILLER_20_221
*517 FILLER_20_233
*518 FILLER_20_245
*519 FILLER_20_251
*520 FILLER_20_253
*521 FILLER_20_265
*522 FILLER_20_27
*523 FILLER_20_277
*524 FILLER_20_289
*525 FILLER_20_29
*526 FILLER_20_3
*527 FILLER_20_301
*528 FILLER_20_307
*529 FILLER_20_309
*530 FILLER_20_321
*531 FILLER_20_333
*532 FILLER_20_345
*533 FILLER_20_349
*534 FILLER_20_41
*535 FILLER_20_53
*536 FILLER_20_65
*537 FILLER_20_77
*538 FILLER_20_83
*539 FILLER_20_85
*540 FILLER_20_97
*541 FILLER_21_105
*542 FILLER_21_111
*543 FILLER_21_113
*544 FILLER_21_125
*545 FILLER_21_137
*546 FILLER_21_149
*547 FILLER_21_15
*548 FILLER_21_161
*549 FILLER_21_167
*550 FILLER_21_169
*551 FILLER_21_181
*552 FILLER_21_193
*553 FILLER_21_205
*554 FILLER_21_217
*555 FILLER_21_223
*556 FILLER_21_225
*557 FILLER_21_237
*558 FILLER_21_249
*559 FILLER_21_261
*560 FILLER_21_27
*561 FILLER_21_273
*562 FILLER_21_279
*563 FILLER_21_281
*564 FILLER_21_293
*565 FILLER_21_3
*566 FILLER_21_305
*567 FILLER_21_317
*568 FILLER_21_329
*569 FILLER_21_335
*570 FILLER_21_337
*571 FILLER_21_349
*572 FILLER_21_39
*573 FILLER_21_51
*574 FILLER_21_55
*575 FILLER_21_57
*576 FILLER_21_69
*577 FILLER_21_81
*578 FILLER_21_93
*579 FILLER_22_109
*580 FILLER_22_121
*581 FILLER_22_133
*582 FILLER_22_139
*583 FILLER_22_141
*584 FILLER_22_15
*585 FILLER_22_153
*586 FILLER_22_165
*587 FILLER_22_177
*588 FILLER_22_189
*589 FILLER_22_195
*590 FILLER_22_197
*591 FILLER_22_209
*592 FILLER_22_221
*593 FILLER_22_233
*594 FILLER_22_245
*595 FILLER_22_251
*596 FILLER_22_253
*597 FILLER_22_265
*598 FILLER_22_27
*599 FILLER_22_277
*600 FILLER_22_289
*601 FILLER_22_29
*602 FILLER_22_3
*603 FILLER_22_301
*604 FILLER_22_307
*605 FILLER_22_309
*606 FILLER_22_321
*607 FILLER_22_333
*608 FILLER_22_345
*609 FILLER_22_349
*610 FILLER_22_41
*611 FILLER_22_53
*612 FILLER_22_65
*613 FILLER_22_77
*614 FILLER_22_83
*615 FILLER_22_85
*616 FILLER_22_97
*617 FILLER_23_105
*618 FILLER_23_111
*619 FILLER_23_113
*620 FILLER_23_125
*621 FILLER_23_137
*622 FILLER_23_149
*623 FILLER_23_15
*624 FILLER_23_161
*625 FILLER_23_167
*626 FILLER_23_169
*627 FILLER_23_181
*628 FILLER_23_193
*629 FILLER_23_205
*630 FILLER_23_217
*631 FILLER_23_223
*632 FILLER_23_225
*633 FILLER_23_237
*634 FILLER_23_249
*635 FILLER_23_261
*636 FILLER_23_27
*637 FILLER_23_273
*638 FILLER_23_279
*639 FILLER_23_281
*640 FILLER_23_293
*641 FILLER_23_3
*642 FILLER_23_305
*643 FILLER_23_317
*644 FILLER_23_329
*645 FILLER_23_335
*646 FILLER_23_337
*647 FILLER_23_349
*648 FILLER_23_39
*649 FILLER_23_51
*650 FILLER_23_55
*651 FILLER_23_57
*652 FILLER_23_69
*653 FILLER_23_81
*654 FILLER_23_93
*655 FILLER_24_109
*656 FILLER_24_121
*657 FILLER_24_133
*658 FILLER_24_139
*659 FILLER_24_141
*660 FILLER_24_15
*661 FILLER_24_153
*662 FILLER_24_165
*663 FILLER_24_177
*664 FILLER_24_189
*665 FILLER_24_195
*666 FILLER_24_197
*667 FILLER_24_209
*668 FILLER_24_221
*669 FILLER_24_233
*670 FILLER_24_245
*671 FILLER_24_251
*672 FILLER_24_253
*673 FILLER_24_265
*674 FILLER_24_27
*675 FILLER_24_277
*676 FILLER_24_289
*677 FILLER_24_29
*678 FILLER_24_3
*679 FILLER_24_301
*680 FILLER_24_307
*681 FILLER_24_309
*682 FILLER_24_321
*683 FILLER_24_333
*684 FILLER_24_345
*685 FILLER_24_349
*686 FILLER_24_41
*687 FILLER_24_53
*688 FILLER_24_65
*689 FILLER_24_77
*690 FILLER_24_83
*691 FILLER_24_85
*692 FILLER_24_97
*693 FILLER_25_105
*694 FILLER_25_111
*695 FILLER_25_113
*696 FILLER_25_125
*697 FILLER_25_137
*698 FILLER_25_149
*699 FILLER_25_15
*700 FILLER_25_161
*701 FILLER_25_167
*702 FILLER_25_169
*703 FILLER_25_181
*704 FILLER_25_193
*705 FILLER_25_205
*706 FILLER_25_217
*707 FILLER_25_223
*708 FILLER_25_225
*709 FILLER_25_237
*710 FILLER_25_249
*711 FILLER_25_261
*712 FILLER_25_27
*713 FILLER_25_273
*714 FILLER_25_279
*715 FILLER_25_281
*716 FILLER_25_293
*717 FILLER_25_3
*718 FILLER_25_305
*719 FILLER_25_317
*720 FILLER_25_329
*721 FILLER_25_335
*722 FILLER_25_337
*723 FILLER_25_349
*724 FILLER_25_39
*725 FILLER_25_51
*726 FILLER_25_55
*727 FILLER_25_57
*728 FILLER_25_69
*729 FILLER_25_81
*730 FILLER_25_93
*731 FILLER_26_109
*732 FILLER_26_121
*733 FILLER_26_133
*734 FILLER_26_139
*735 FILLER_26_141
*736 FILLER_26_15
*737 FILLER_26_153
*738 FILLER_26_165
*739 FILLER_26_177
*740 FILLER_26_189
*741 FILLER_26_195
*742 FILLER_26_197
*743 FILLER_26_209
*744 FILLER_26_221
*745 FILLER_26_233
*746 FILLER_26_245
*747 FILLER_26_251
*748 FILLER_26_253
*749 FILLER_26_265
*750 FILLER_26_27
*751 FILLER_26_277
*752 FILLER_26_289
*753 FILLER_26_29
*754 FILLER_26_3
*755 FILLER_26_301
*756 FILLER_26_307
*757 FILLER_26_309
*758 FILLER_26_321
*759 FILLER_26_333
*760 FILLER_26_345
*761 FILLER_26_349
*762 FILLER_26_41
*763 FILLER_26_53
*764 FILLER_26_65
*765 FILLER_26_77
*766 FILLER_26_83
*767 FILLER_26_85
*768 FILLER_26_97
*769 FILLER_27_105
*770 FILLER_27_111
*771 FILLER_27_113
*772 FILLER_27_125
*773 FILLER_27_137
*774 FILLER_27_149
*775 FILLER_27_15
*776 FILLER_27_161
*777 FILLER_27_167
*778 FILLER_27_169
*779 FILLER_27_181
*780 FILLER_27_193
*781 FILLER_27_205
*782 FILLER_27_217
*783 FILLER_27_223
*784 FILLER_27_225
*785 FILLER_27_237
*786 FILLER_27_249
*787 FILLER_27_261
*788 FILLER_27_27
*789 FILLER_27_273
*790 FILLER_27_279
*791 FILLER_27_281
*792 FILLER_27_293
*793 FILLER_27_3
*794 FILLER_27_305
*795 FILLER_27_317
*796 FILLER_27_329
*797 FILLER_27_335
*798 FILLER_27_337
*799 FILLER_27_349
*800 FILLER_27_39
*801 FILLER_27_51
*802 FILLER_27_55
*803 FILLER_27_57
*804 FILLER_27_69
*805 FILLER_27_81
*806 FILLER_27_93
*807 FILLER_28_109
*808 FILLER_28_121
*809 FILLER_28_133
*810 FILLER_28_139
*811 FILLER_28_141
*812 FILLER_28_15
*813 FILLER_28_153
*814 FILLER_28_165
*815 FILLER_28_177
*816 FILLER_28_189
*817 FILLER_28_195
*818 FILLER_28_197
*819 FILLER_28_209
*820 FILLER_28_221
*821 FILLER_28_233
*822 FILLER_28_245
*823 FILLER_28_251
*824 FILLER_28_253
*825 FILLER_28_265
*826 FILLER_28_27
*827 FILLER_28_277
*828 FILLER_28_289
*829 FILLER_28_29
*830 FILLER_28_3
*831 FILLER_28_301
*832 FILLER_28_307
*833 FILLER_28_309
*834 FILLER_28_321
*835 FILLER_28_333
*836 FILLER_28_345
*837 FILLER_28_349
*838 FILLER_28_41
*839 FILLER_28_53
*840 FILLER_28_65
*841 FILLER_28_77
*842 FILLER_28_83
*843 FILLER_28_85
*844 FILLER_28_97
*845 FILLER_29_105
*846 FILLER_29_111
*847 FILLER_29_113
*848 FILLER_29_125
*849 FILLER_29_137
*850 FILLER_29_149
*851 FILLER_29_15
*852 FILLER_29_161
*853 FILLER_29_167
*854 FILLER_29_169
*855 FILLER_29_181
*856 FILLER_29_193
*857 FILLER_29_205
*858 FILLER_29_217
*859 FILLER_29_223
*860 FILLER_29_225
*861 FILLER_29_237
*862 FILLER_29_249
*863 FILLER_29_261
*864 FILLER_29_27
*865 FILLER_29_273
*866 FILLER_29_279
*867 FILLER_29_281
*868 FILLER_29_293
*869 FILLER_29_3
*870 FILLER_29_305
*871 FILLER_29_317
*872 FILLER_29_329
*873 FILLER_29_335
*874 FILLER_29_337
*875 FILLER_29_349
*876 FILLER_29_39
*877 FILLER_29_51
*878 FILLER_29_55
*879 FILLER_29_57
*880 FILLER_29_69
*881 FILLER_29_81
*882 FILLER_29_93
*883 FILLER_2_109
*884 FILLER_2_121
*885 FILLER_2_133
*886 FILLER_2_139
*887 FILLER_2_141
*888 FILLER_2_15
*889 FILLER_2_153
*890 FILLER_2_165
*891 FILLER_2_177
*892 FILLER_2_189
*893 FILLER_2_195
*894 FILLER_2_197
*895 FILLER_2_209
*896 FILLER_2_221
*897 FILLER_2_233
*898 FILLER_2_245
*899 FILLER_2_251
*900 FILLER_2_253
*901 FILLER_2_265
*902 FILLER_2_27
*903 FILLER_2_277
*904 FILLER_2_289
*905 FILLER_2_29
*906 FILLER_2_3
*907 FILLER_2_301
*908 FILLER_2_307
*909 FILLER_2_309
*910 FILLER_2_321
*911 FILLER_2_333
*912 FILLER_2_345
*913 FILLER_2_349
*914 FILLER_2_41
*915 FILLER_2_53
*916 FILLER_2_65
*917 FILLER_2_77
*918 FILLER_2_83
*919 FILLER_2_85
*920 FILLER_2_97
*921 FILLER_30_109
*922 FILLER_30_121
*923 FILLER_30_133
*924 FILLER_30_139
*925 FILLER_30_141
*926 FILLER_30_15
*927 FILLER_30_153
*928 FILLER_30_165
*929 FILLER_30_177
*930 FILLER_30_189
*931 FILLER_30_195
*932 FILLER_30_197
*933 FILLER_30_209
*934 FILLER_30_221
*935 FILLER_30_233
*936 FILLER_30_245
*937 FILLER_30_251
*938 FILLER_30_253
*939 FILLER_30_265
*940 FILLER_30_27
*941 FILLER_30_277
*942 FILLER_30_289
*943 FILLER_30_29
*944 FILLER_30_3
*945 FILLER_30_301
*946 FILLER_30_307
*947 FILLER_30_309
*948 FILLER_30_321
*949 FILLER_30_333
*950 FILLER_30_345
*951 FILLER_30_349
*952 FILLER_30_41
*953 FILLER_30_53
*954 FILLER_30_65
*955 FILLER_30_77
*956 FILLER_30_83
*957 FILLER_30_85
*958 FILLER_30_97
*959 FILLER_31_105
*960 FILLER_31_111
*961 FILLER_31_113
*962 FILLER_31_125
*963 FILLER_31_137
*964 FILLER_31_149
*965 FILLER_31_15
*966 FILLER_31_161
*967 FILLER_31_167
*968 FILLER_31_169
*969 FILLER_31_181
*970 FILLER_31_193
*971 FILLER_31_205
*972 FILLER_31_217
*973 FILLER_31_223
*974 FILLER_31_225
*975 FILLER_31_237
*976 FILLER_31_249
*977 FILLER_31_261
*978 FILLER_31_27
*979 FILLER_31_273
*980 FILLER_31_279
*981 FILLER_31_281
*982 FILLER_31_293
*983 FILLER_31_3
*984 FILLER_31_305
*985 FILLER_31_317
*986 FILLER_31_329
*987 FILLER_31_335
*988 FILLER_31_337
*989 FILLER_31_349
*990 FILLER_31_39
*991 FILLER_31_51
*992 FILLER_31_55
*993 FILLER_31_57
*994 FILLER_31_69
*995 FILLER_31_81
*996 FILLER_31_93
*997 FILLER_32_109
*998 FILLER_32_121
*999 FILLER_32_133
*1000 FILLER_32_139
*1001 FILLER_32_141
*1002 FILLER_32_15
*1003 FILLER_32_153
*1004 FILLER_32_165
*1005 FILLER_32_177
*1006 FILLER_32_189
*1007 FILLER_32_195
*1008 FILLER_32_197
*1009 FILLER_32_209
*1010 FILLER_32_221
*1011 FILLER_32_233
*1012 FILLER_32_245
*1013 FILLER_32_251
*1014 FILLER_32_253
*1015 FILLER_32_265
*1016 FILLER_32_27
*1017 FILLER_32_277
*1018 FILLER_32_289
*1019 FILLER_32_29
*1020 FILLER_32_3
*1021 FILLER_32_301
*1022 FILLER_32_307
*1023 FILLER_32_309
*1024 FILLER_32_321
*1025 FILLER_32_333
*1026 FILLER_32_345
*1027 FILLER_32_349
*1028 FILLER_32_41
*1029 FILLER_32_53
*1030 FILLER_32_65
*1031 FILLER_32_77
*1032 FILLER_32_83
*1033 FILLER_32_85
*1034 FILLER_32_97
*1035 FILLER_33_105
*1036 FILLER_33_111
*1037 FILLER_33_113
*1038 FILLER_33_125
*1039 FILLER_33_137
*1040 FILLER_33_149
*1041 FILLER_33_15
*1042 FILLER_33_161
*1043 FILLER_33_167
*1044 FILLER_33_169
*1045 FILLER_33_181
*1046 FILLER_33_193
*1047 FILLER_33_205
*1048 FILLER_33_217
*1049 FILLER_33_223
*1050 FILLER_33_225
*1051 FILLER_33_237
*1052 FILLER_33_249
*1053 FILLER_33_261
*1054 FILLER_33_27
*1055 FILLER_33_273
*1056 FILLER_33_279
*1057 FILLER_33_281
*1058 FILLER_33_293
*1059 FILLER_33_3
*1060 FILLER_33_305
*1061 FILLER_33_317
*1062 FILLER_33_329
*1063 FILLER_33_335
*1064 FILLER_33_337
*1065 FILLER_33_349
*1066 FILLER_33_39
*1067 FILLER_33_51
*1068 FILLER_33_55
*1069 FILLER_33_57
*1070 FILLER_33_69
*1071 FILLER_33_81
*1072 FILLER_33_93
*1073 FILLER_34_109
*1074 FILLER_34_121
*1075 FILLER_34_133
*1076 FILLER_34_139
*1077 FILLER_34_141
*1078 FILLER_34_15
*1079 FILLER_34_153
*1080 FILLER_34_165
*1081 FILLER_34_177
*1082 FILLER_34_189
*1083 FILLER_34_195
*1084 FILLER_34_197
*1085 FILLER_34_209
*1086 FILLER_34_221
*1087 FILLER_34_233
*1088 FILLER_34_245
*1089 FILLER_34_251
*1090 FILLER_34_253
*1091 FILLER_34_265
*1092 FILLER_34_27
*1093 FILLER_34_277
*1094 FILLER_34_289
*1095 FILLER_34_29
*1096 FILLER_34_3
*1097 FILLER_34_301
*1098 FILLER_34_307
*1099 FILLER_34_309
*1100 FILLER_34_321
*1101 FILLER_34_333
*1102 FILLER_34_345
*1103 FILLER_34_349
*1104 FILLER_34_41
*1105 FILLER_34_53
*1106 FILLER_34_65
*1107 FILLER_34_77
*1108 FILLER_34_83
*1109 FILLER_34_85
*1110 FILLER_34_97
*1111 FILLER_35_105
*1112 FILLER_35_111
*1113 FILLER_35_113
*1114 FILLER_35_125
*1115 FILLER_35_137
*1116 FILLER_35_149
*1117 FILLER_35_15
*1118 FILLER_35_161
*1119 FILLER_35_167
*1120 FILLER_35_169
*1121 FILLER_35_181
*1122 FILLER_35_193
*1123 FILLER_35_205
*1124 FILLER_35_217
*1125 FILLER_35_223
*1126 FILLER_35_225
*1127 FILLER_35_237
*1128 FILLER_35_249
*1129 FILLER_35_261
*1130 FILLER_35_27
*1131 FILLER_35_273
*1132 FILLER_35_279
*1133 FILLER_35_281
*1134 FILLER_35_293
*1135 FILLER_35_3
*1136 FILLER_35_305
*1137 FILLER_35_317
*1138 FILLER_35_329
*1139 FILLER_35_335
*1140 FILLER_35_337
*1141 FILLER_35_349
*1142 FILLER_35_39
*1143 FILLER_35_51
*1144 FILLER_35_55
*1145 FILLER_35_57
*1146 FILLER_35_69
*1147 FILLER_35_81
*1148 FILLER_35_93
*1149 FILLER_36_109
*1150 FILLER_36_121
*1151 FILLER_36_133
*1152 FILLER_36_139
*1153 FILLER_36_141
*1154 FILLER_36_149
*1155 FILLER_36_15
*1156 FILLER_36_155
*1157 FILLER_36_167
*1158 FILLER_36_172
*1159 FILLER_36_184
*1160 FILLER_36_197
*1161 FILLER_36_209
*1162 FILLER_36_221
*1163 FILLER_36_233
*1164 FILLER_36_245
*1165 FILLER_36_251
*1166 FILLER_36_253
*1167 FILLER_36_265
*1168 FILLER_36_27
*1169 FILLER_36_277
*1170 FILLER_36_289
*1171 FILLER_36_29
*1172 FILLER_36_3
*1173 FILLER_36_301
*1174 FILLER_36_307
*1175 FILLER_36_309
*1176 FILLER_36_321
*1177 FILLER_36_333
*1178 FILLER_36_345
*1179 FILLER_36_349
*1180 FILLER_36_41
*1181 FILLER_36_53
*1182 FILLER_36_62
*1183 FILLER_36_74
*1184 FILLER_36_82
*1185 FILLER_36_85
*1186 FILLER_36_97
*1187 FILLER_37_102
*1188 FILLER_37_106
*1189 FILLER_37_110
*1190 FILLER_37_113
*1191 FILLER_37_118
*1192 FILLER_37_12
*1193 FILLER_37_122
*1194 FILLER_37_126
*1195 FILLER_37_130
*1196 FILLER_37_134
*1197 FILLER_37_141
*1198 FILLER_37_157
*1199 FILLER_37_165
*1200 FILLER_37_169
*1201 FILLER_37_175
*1202 FILLER_37_180
*1203 FILLER_37_184
*1204 FILLER_37_189
*1205 FILLER_37_19
*1206 FILLER_37_195
*1207 FILLER_37_197
*1208 FILLER_37_203
*1209 FILLER_37_215
*1210 FILLER_37_223
*1211 FILLER_37_225
*1212 FILLER_37_237
*1213 FILLER_37_249
*1214 FILLER_37_253
*1215 FILLER_37_259
*1216 FILLER_37_26
*1217 FILLER_37_264
*1218 FILLER_37_275
*1219 FILLER_37_279
*1220 FILLER_37_281
*1221 FILLER_37_29
*1222 FILLER_37_293
*1223 FILLER_37_3
*1224 FILLER_37_305
*1225 FILLER_37_309
*1226 FILLER_37_321
*1227 FILLER_37_333
*1228 FILLER_37_337
*1229 FILLER_37_349
*1230 FILLER_37_38
*1231 FILLER_37_42
*1232 FILLER_37_46
*1233 FILLER_37_50
*1234 FILLER_37_54
*1235 FILLER_37_57
*1236 FILLER_37_68
*1237 FILLER_37_75
*1238 FILLER_37_82
*1239 FILLER_37_85
*1240 FILLER_37_94
*1241 FILLER_37_98
*1242 FILLER_3_105
*1243 FILLER_3_111
*1244 FILLER_3_113
*1245 FILLER_3_125
*1246 FILLER_3_137
*1247 FILLER_3_149
*1248 FILLER_3_15
*1249 FILLER_3_161
*1250 FILLER_3_167
*1251 FILLER_3_169
*1252 FILLER_3_181
*1253 FILLER_3_193
*1254 FILLER_3_205
*1255 FILLER_3_217
*1256 FILLER_3_223
*1257 FILLER_3_225
*1258 FILLER_3_237
*1259 FILLER_3_249
*1260 FILLER_3_261
*1261 FILLER_3_27
*1262 FILLER_3_273
*1263 FILLER_3_279
*1264 FILLER_3_281
*1265 FILLER_3_293
*1266 FILLER_3_3
*1267 FILLER_3_305
*1268 FILLER_3_317
*1269 FILLER_3_329
*1270 FILLER_3_335
*1271 FILLER_3_337
*1272 FILLER_3_349
*1273 FILLER_3_39
*1274 FILLER_3_51
*1275 FILLER_3_55
*1276 FILLER_3_57
*1277 FILLER_3_69
*1278 FILLER_3_81
*1279 FILLER_3_93
*1280 FILLER_4_109
*1281 FILLER_4_121
*1282 FILLER_4_133
*1283 FILLER_4_139
*1284 FILLER_4_141
*1285 FILLER_4_15
*1286 FILLER_4_153
*1287 FILLER_4_165
*1288 FILLER_4_177
*1289 FILLER_4_189
*1290 FILLER_4_195
*1291 FILLER_4_197
*1292 FILLER_4_209
*1293 FILLER_4_221
*1294 FILLER_4_233
*1295 FILLER_4_245
*1296 FILLER_4_251
*1297 FILLER_4_253
*1298 FILLER_4_265
*1299 FILLER_4_27
*1300 FILLER_4_277
*1301 FILLER_4_289
*1302 FILLER_4_29
*1303 FILLER_4_3
*1304 FILLER_4_301
*1305 FILLER_4_307
*1306 FILLER_4_309
*1307 FILLER_4_321
*1308 FILLER_4_333
*1309 FILLER_4_345
*1310 FILLER_4_349
*1311 FILLER_4_41
*1312 FILLER_4_53
*1313 FILLER_4_65
*1314 FILLER_4_77
*1315 FILLER_4_83
*1316 FILLER_4_85
*1317 FILLER_4_97
*1318 FILLER_5_105
*1319 FILLER_5_111
*1320 FILLER_5_113
*1321 FILLER_5_125
*1322 FILLER_5_137
*1323 FILLER_5_149
*1324 FILLER_5_15
*1325 FILLER_5_161
*1326 FILLER_5_167
*1327 FILLER_5_169
*1328 FILLER_5_181
*1329 FILLER_5_193
*1330 FILLER_5_205
*1331 FILLER_5_217
*1332 FILLER_5_223
*1333 FILLER_5_225
*1334 FILLER_5_237
*1335 FILLER_5_249
*1336 FILLER_5_261
*1337 FILLER_5_27
*1338 FILLER_5_273
*1339 FILLER_5_279
*1340 FILLER_5_281
*1341 FILLER_5_293
*1342 FILLER_5_3
*1343 FILLER_5_305
*1344 FILLER_5_317
*1345 FILLER_5_329
*1346 FILLER_5_335
*1347 FILLER_5_337
*1348 FILLER_5_349
*1349 FILLER_5_39
*1350 FILLER_5_51
*1351 FILLER_5_55
*1352 FILLER_5_57
*1353 FILLER_5_69
*1354 FILLER_5_81
*1355 FILLER_5_93
*1356 FILLER_6_109
*1357 FILLER_6_121
*1358 FILLER_6_133
*1359 FILLER_6_139
*1360 FILLER_6_141
*1361 FILLER_6_15
*1362 FILLER_6_153
*1363 FILLER_6_165
*1364 FILLER_6_177
*1365 FILLER_6_189
*1366 FILLER_6_195
*1367 FILLER_6_197
*1368 FILLER_6_209
*1369 FILLER_6_221
*1370 FILLER_6_233
*1371 FILLER_6_245
*1372 FILLER_6_251
*1373 FILLER_6_253
*1374 FILLER_6_265
*1375 FILLER_6_27
*1376 FILLER_6_277
*1377 FILLER_6_289
*1378 FILLER_6_29
*1379 FILLER_6_3
*1380 FILLER_6_301
*1381 FILLER_6_307
*1382 FILLER_6_309
*1383 FILLER_6_321
*1384 FILLER_6_333
*1385 FILLER_6_345
*1386 FILLER_6_349
*1387 FILLER_6_41
*1388 FILLER_6_53
*1389 FILLER_6_65
*1390 FILLER_6_77
*1391 FILLER_6_83
*1392 FILLER_6_85
*1393 FILLER_6_97
*1394 FILLER_7_105
*1395 FILLER_7_111
*1396 FILLER_7_113
*1397 FILLER_7_125
*1398 FILLER_7_137
*1399 FILLER_7_149
*1400 FILLER_7_15
*1401 FILLER_7_161
*1402 FILLER_7_167
*1403 FILLER_7_169
*1404 FILLER_7_181
*1405 FILLER_7_193
*1406 FILLER_7_205
*1407 FILLER_7_217
*1408 FILLER_7_223
*1409 FILLER_7_225
*1410 FILLER_7_237
*1411 FILLER_7_249
*1412 FILLER_7_261
*1413 FILLER_7_27
*1414 FILLER_7_273
*1415 FILLER_7_279
*1416 FILLER_7_281
*1417 FILLER_7_293
*1418 FILLER_7_3
*1419 FILLER_7_305
*1420 FILLER_7_317
*1421 FILLER_7_329
*1422 FILLER_7_335
*1423 FILLER_7_337
*1424 FILLER_7_349
*1425 FILLER_7_39
*1426 FILLER_7_51
*1427 FILLER_7_55
*1428 FILLER_7_57
*1429 FILLER_7_69
*1430 FILLER_7_81
*1431 FILLER_7_93
*1432 FILLER_8_109
*1433 FILLER_8_121
*1434 FILLER_8_133
*1435 FILLER_8_139
*1436 FILLER_8_141
*1437 FILLER_8_15
*1438 FILLER_8_153
*1439 FILLER_8_165
*1440 FILLER_8_177
*1441 FILLER_8_189
*1442 FILLER_8_195
*1443 FILLER_8_197
*1444 FILLER_8_209
*1445 FILLER_8_221
*1446 FILLER_8_233
*1447 FILLER_8_245
*1448 FILLER_8_251
*1449 FILLER_8_253
*1450 FILLER_8_265
*1451 FILLER_8_27
*1452 FILLER_8_277
*1453 FILLER_8_289
*1454 FILLER_8_29
*1455 FILLER_8_3
*1456 FILLER_8_301
*1457 FILLER_8_307
*1458 FILLER_8_309
*1459 FILLER_8_321
*1460 FILLER_8_333
*1461 FILLER_8_345
*1462 FILLER_8_349
*1463 FILLER_8_41
*1464 FILLER_8_53
*1465 FILLER_8_65
*1466 FILLER_8_77
*1467 FILLER_8_83
*1468 FILLER_8_85
*1469 FILLER_8_97
*1470 FILLER_9_105
*1471 FILLER_9_111
*1472 FILLER_9_113
*1473 FILLER_9_125
*1474 FILLER_9_137
*1475 FILLER_9_149
*1476 FILLER_9_15
*1477 FILLER_9_161
*1478 FILLER_9_167
*1479 FILLER_9_169
*1480 FILLER_9_181
*1481 FILLER_9_193
*1482 FILLER_9_205
*1483 FILLER_9_217
*1484 FILLER_9_223
*1485 FILLER_9_225
*1486 FILLER_9_237
*1487 FILLER_9_249
*1488 FILLER_9_261
*1489 FILLER_9_27
*1490 FILLER_9_273
*1491 FILLER_9_279
*1492 FILLER_9_281
*1493 FILLER_9_293
*1494 FILLER_9_3
*1495 FILLER_9_305
*1496 FILLER_9_317
*1497 FILLER_9_329
*1498 FILLER_9_335
*1499 FILLER_9_337
*1500 FILLER_9_349
*1501 FILLER_9_39
*1502 FILLER_9_51
*1503 FILLER_9_55
*1504 FILLER_9_57
*1505 FILLER_9_69
*1506 FILLER_9_81
*1507 FILLER_9_93
*1508 PHY_0
*1509 PHY_1
*1510 PHY_10
*1511 PHY_11
*1512 PHY_12
*1513 PHY_13
*1514 PHY_14
*1515 PHY_15
*1516 PHY_16
*1517 PHY_17
*1518 PHY_18
*1519 PHY_19
*1520 PHY_2
*1521 PHY_20
*1522 PHY_21
*1523 PHY_22
*1524 PHY_23
*1525 PHY_24
*1526 PHY_25
*1527 PHY_26
*1528 PHY_27
*1529 PHY_28
*1530 PHY_29
*1531 PHY_3
*1532 PHY_30
*1533 PHY_31
*1534 PHY_32
*1535 PHY_33
*1536 PHY_34
*1537 PHY_35
*1538 PHY_36
*1539 PHY_37
*1540 PHY_38
*1541 PHY_39
*1542 PHY_4
*1543 PHY_40
*1544 PHY_41
*1545 PHY_42
*1546 PHY_43
*1547 PHY_44
*1548 PHY_45
*1549 PHY_46
*1550 PHY_47
*1551 PHY_48
*1552 PHY_49
*1553 PHY_5
*1554 PHY_50
*1555 PHY_51
*1556 PHY_52
*1557 PHY_53
*1558 PHY_54
*1559 PHY_55
*1560 PHY_56
*1561 PHY_57
*1562 PHY_58
*1563 PHY_59
*1564 PHY_6
*1565 PHY_60
*1566 PHY_61
*1567 PHY_62
*1568 PHY_63
*1569 PHY_64
*1570 PHY_65
*1571 PHY_66
*1572 PHY_67
*1573 PHY_68
*1574 PHY_69
*1575 PHY_7
*1576 PHY_70
*1577 PHY_71
*1578 PHY_72
*1579 PHY_73
*1580 PHY_74
*1581 PHY_75
*1582 PHY_8
*1583 PHY_9
*1584 TAP_100
*1585 TAP_101
*1586 TAP_102
*1587 TAP_103
*1588 TAP_104
*1589 TAP_105
*1590 TAP_106
*1591 TAP_107
*1592 TAP_108
*1593 TAP_109
*1594 TAP_110
*1595 TAP_111
*1596 TAP_112
*1597 TAP_113
*1598 TAP_114
*1599 TAP_115
*1600 TAP_116
*1601 TAP_117
*1602 TAP_118
*1603 TAP_119
*1604 TAP_120
*1605 TAP_121
*1606 TAP_122
*1607 TAP_123
*1608 TAP_124
*1609 TAP_125
*1610 TAP_126
*1611 TAP_127
*1612 TAP_128
*1613 TAP_129
*1614 TAP_130
*1615 TAP_131
*1616 TAP_132
*1617 TAP_133
*1618 TAP_134
*1619 TAP_135
*1620 TAP_136
*1621 TAP_137
*1622 TAP_138
*1623 TAP_139
*1624 TAP_140
*1625 TAP_141
*1626 TAP_142
*1627 TAP_143
*1628 TAP_144
*1629 TAP_145
*1630 TAP_146
*1631 TAP_147
*1632 TAP_148
*1633 TAP_149
*1634 TAP_150
*1635 TAP_151
*1636 TAP_152
*1637 TAP_153
*1638 TAP_154
*1639 TAP_155
*1640 TAP_156
*1641 TAP_157