*SPEF "ieee 1481-1999"
*DESIGN "tt_um_marno_factorize"
*DATE "11:11:11 Fri 11 11, 1111"
*VENDOR "OpenRCX"
*PROGRAM "Parallel Extraction"
*VERSION "1.0"
*DESIGN_FLOW "NAME_SCOPE LOCAL" "PIN_CAP NONE"
*DIVIDER /
*DELIMITER :
*BUS_DELIMITER []
*T_UNIT 1 NS
*C_UNIT 1 PF
*R_UNIT 1 OHM
*L_UNIT 1 HENRY

*NAME_MAP
*3 clk
*4 ena
*5 rst_n
*6 ui_in[0]
*7 ui_in[1]
*8 ui_in[2]
*9 ui_in[3]
*10 ui_in[4]
*11 ui_in[5]
*12 ui_in[6]
*13 ui_in[7]
*14 uio_in[0]
*15 uio_in[1]
*16 uio_in[2]
*17 uio_in[3]
*18 uio_in[4]
*19 uio_in[5]
*20 uio_in[6]
*21 uio_in[7]
*22 net11
*23 net12
*24 net13
*25 net14
*26 net15
*27 net16
*28 net17
*29 net18
*30 uio_out[0]
*31 uio_out[1]
*32 uio_out[2]
*33 uio_out[3]
*34 uio_out[4]
*35 uio_out[5]
*36 uio_out[6]
*37 uio_out[7]
*38 uo_out[0]
*39 uo_out[1]
*40 uo_out[2]
*41 uo_out[3]
*42 uo_out[4]
*43 uo_out[5]
*44 uo_out[6]
*45 net10
*46 _0000_
*47 _0001_
*48 _0002_
*49 _0003_
*50 _0004_
*51 _0005_
*52 _0006_
*53 _0007_
*54 _0008_
*55 _0009_
*56 _0010_
*57 _0011_
*58 _0012_
*59 _0013_
*60 _0014_
*61 _0015_
*62 _0016_
*63 _0017_
*64 _0018_
*65 _0019_
*66 _0020_
*67 _0021_
*68 _0022_
*69 _0023_
*70 _0024_
*71 _0025_
*72 _0026_
*73 _0027_
*74 _0028_
*75 _0029_
*76 _0030_
*77 _0031_
*78 _0032_
*79 _0033_
*80 _0034_
*81 _0035_
*82 _0036_
*83 _0037_
*84 _0038_
*85 _0039_
*86 _0040_
*87 _0041_
*88 _0042_
*89 _0043_
*90 _0044_
*91 _0045_
*92 _0046_
*93 _0047_
*94 _0048_
*95 _0049_
*96 _0050_
*97 _0051_
*98 _0052_
*99 _0053_
*100 _0054_
*101 _0055_
*102 _0056_
*103 _0057_
*104 _0058_
*105 _0059_
*106 _0060_
*107 _0061_
*108 _0062_
*109 _0063_
*110 _0064_
*111 _0065_
*112 _0066_
*113 _0067_
*114 _0068_
*115 _0069_
*116 _0070_
*117 _0071_
*118 _0072_
*119 _0073_
*120 _0074_
*121 _0075_
*122 _0076_
*123 _0077_
*124 _0078_
*125 _0079_
*126 _0080_
*127 _0081_
*128 _0082_
*129 _0083_
*130 _0084_
*131 _0085_
*132 _0086_
*133 _0087_
*134 _0088_
*135 _0089_
*136 _0090_
*137 _0091_
*138 _0092_
*139 _0093_
*140 _0094_
*141 _0095_
*142 _0096_
*143 _0097_
*144 _0098_
*145 _0099_
*146 _0100_
*147 _0101_
*148 _0102_
*149 _0103_
*150 _0104_
*151 _0105_
*152 _0106_
*153 _0107_
*154 _0108_
*155 _0109_
*156 _0110_
*157 _0111_
*158 _0112_
*159 _0113_
*160 _0114_
*161 _0115_
*162 _0116_
*163 _0117_
*164 _0118_
*165 _0119_
*166 _0120_
*167 _0121_
*168 _0122_
*169 _0123_
*170 _0124_
*171 _0125_
*172 _0126_
*173 _0127_
*174 _0128_
*175 _0129_
*176 _0130_
*177 _0131_
*178 _0132_
*179 _0133_
*180 _0134_
*181 _0135_
*182 _0136_
*183 _0137_
*184 _0138_
*185 _0139_
*186 _0140_
*187 _0141_
*188 _0142_
*189 _0143_
*190 _0144_
*191 _0145_
*192 _0146_
*193 _0147_
*194 _0148_
*195 _0149_
*196 _0150_
*197 _0151_
*198 _0152_
*199 _0153_
*200 _0154_
*201 _0155_
*202 _0156_
*203 _0157_
*204 _0158_
*205 _0159_
*206 _0160_
*207 _0161_
*208 _0162_
*209 _0163_
*210 _0164_
*211 _0165_
*212 _0166_
*213 _0167_
*214 _0168_
*215 _0169_
*216 _0170_
*217 _0171_
*218 _0172_
*219 _0173_
*220 _0174_
*221 _0175_
*222 _0176_
*223 _0177_
*224 _0178_
*225 _0179_
*226 _0180_
*227 _0181_
*228 _0182_
*229 _0183_
*230 _0184_
*231 _0185_
*232 _0186_
*233 _0187_
*234 _0188_
*235 _0189_
*236 _0190_
*237 _0191_
*238 _0192_
*239 _0193_
*240 _0194_
*241 _0195_
*242 _0196_
*243 _0197_
*244 _0198_
*245 _0199_
*246 _0200_
*247 _0201_
*248 _0202_
*249 _0203_
*250 _0204_
*251 _0205_
*252 _0206_
*253 _0207_
*254 _0208_
*255 _0209_
*256 _0210_
*257 _0211_
*258 _0212_
*259 _0213_
*260 _0214_
*261 _0215_
*262 _0216_
*263 _0217_
*264 _0218_
*265 _0219_
*266 _0220_
*267 _0221_
*268 _0222_
*269 _0223_
*270 _0224_
*271 _0225_
*272 _0226_
*273 _0227_
*274 _0228_
*275 _0229_
*276 _0230_
*277 _0231_
*278 _0232_
*279 _0233_
*280 _0234_
*281 _0235_
*282 _0236_
*283 _0237_
*284 _0238_
*285 _0239_
*286 _0240_
*287 _0241_
*288 _0242_
*289 _0243_
*290 _0244_
*291 _0245_
*292 _0246_
*293 _0247_
*294 _0248_
*295 _0249_
*296 _0250_
*297 _0251_
*298 _0252_
*299 _0253_
*300 _0254_
*301 _0255_
*302 _0256_
*303 _0257_
*304 _0258_
*305 _0259_
*306 _0260_
*307 _0261_
*308 _0262_
*309 _0263_
*310 _0264_
*311 _0265_
*312 _0266_
*313 _0267_
*314 _0268_
*315 _0269_
*316 _0270_
*317 _0271_
*318 _0272_
*319 _0273_
*320 _0274_
*321 _0275_
*322 _0276_
*323 _0277_
*324 _0278_
*325 _0279_
*326 _0280_
*327 _0281_
*328 _0282_
*329 _0283_
*330 _0284_
*331 _0285_
*332 _0286_
*333 _0287_
*334 _0288_
*335 _0289_
*336 _0290_
*337 _0291_
*338 _0292_
*339 _0293_
*340 _0294_
*341 _0295_
*342 _0296_
*343 _0297_
*344 _0298_
*345 _0299_
*346 _0300_
*347 _0301_
*348 _0302_
*349 _0303_
*350 _0304_
*351 _0305_
*352 _0306_
*353 _0307_
*354 _0308_
*355 _0309_
*356 _0310_
*357 _0311_
*358 _0312_
*359 _0313_
*360 _0314_
*361 _0315_
*362 _0316_
*363 _0317_
*364 _0318_
*365 _0319_
*366 _0320_
*367 _0321_
*368 _0322_
*369 _0323_
*370 _0324_
*371 _0325_
*372 _0326_
*373 _0327_
*374 _0328_
*375 _0329_
*376 _0330_
*377 _0331_
*378 _0332_
*379 _0333_
*380 _0334_
*381 _0335_
*382 _0336_
*383 _0337_
*384 _0338_
*385 _0339_
*386 _0340_
*387 _0341_
*388 _0342_
*389 _0343_
*390 _0344_
*391 _0345_
*392 _0346_
*393 _0347_
*394 _0348_
*395 _0349_
*396 _0350_
*397 _0351_
*398 _0352_
*399 _0353_
*400 _0354_
*401 _0355_
*402 _0356_
*403 _0357_
*404 _0358_
*405 _0359_
*406 _0360_
*407 _0361_
*408 _0362_
*409 _0363_
*410 _0364_
*411 _0365_
*412 _0366_
*413 _0367_
*414 _0368_
*415 _0369_
*416 _0370_
*417 _0371_
*418 _0372_
*419 _0373_
*420 _0374_
*421 _0375_
*422 _0376_
*423 _0377_
*424 _0378_
*425 _0379_
*426 _0380_
*427 _0381_
*428 _0382_
*429 _0383_
*430 _0384_
*431 _0385_
*432 _0386_
*433 _0387_
*434 _0388_
*435 _0389_
*436 _0390_
*437 _0391_
*438 _0392_
*439 _0393_
*440 _0394_
*441 _0395_
*442 _0396_
*443 _0397_
*444 _0398_
*445 _0399_
*446 _0400_
*447 _0401_
*448 _0402_
*449 _0403_
*450 _0404_
*451 _0405_
*452 _0406_
*453 _0407_
*454 _0408_
*455 _0409_
*456 _0410_
*457 _0411_
*458 _0412_
*459 _0413_
*460 _0414_
*461 _0415_
*462 _0416_
*463 _0417_
*464 _0418_
*465 _0419_
*466 _0420_
*467 _0421_
*468 _0422_
*469 _0423_
*470 _0424_
*471 _0425_
*472 _0426_
*473 _0427_
*474 _0428_
*475 _0429_
*476 _0430_
*477 _0431_
*478 _0432_
*479 _0433_
*480 _0434_
*481 _0435_
*482 _0436_
*483 _0437_
*484 _0438_
*485 _0439_
*486 _0440_
*487 _0441_
*488 _0442_
*489 _0443_
*490 _0444_
*491 _0445_
*492 _0446_
*493 _0447_
*494 _0448_
*495 _0449_
*496 _0450_
*497 _0451_
*498 _0452_
*499 _0453_
*500 _0454_
*501 _0455_
*502 _0456_
*503 _0457_
*504 _0458_
*505 _0459_
*506 _0460_
*507 _0461_
*508 _0462_
*509 _0463_
*510 _0464_
*511 _0465_
*512 _0466_
*513 _0467_
*514 _0468_
*515 _0469_
*516 _0470_
*517 _0471_
*518 _0472_
*519 _0473_
*520 _0474_
*521 _0475_
*522 _0476_
*523 _0477_
*524 _0478_
*525 _0479_
*526 _0480_
*527 _0481_
*528 _0482_
*529 _0483_
*530 _0484_
*531 _0485_
*532 _0486_
*533 _0487_
*534 _0488_
*535 _0489_
*536 _0490_
*537 _0491_
*538 _0492_
*539 _0493_
*540 _0494_
*541 _0495_
*542 _0496_
*543 _0497_
*544 _0498_
*545 _0499_
*546 _0500_
*547 _0501_
*548 _0502_
*549 _0503_
*550 _0504_
*551 _0505_
*552 _0506_
*553 _0507_
*554 _0508_
*555 _0509_
*556 _0510_
*557 _0511_
*558 _0512_
*559 _0513_
*560 _0514_
*561 _0515_
*562 _0516_
*563 _0517_
*564 _0518_
*565 _0519_
*566 _0520_
*567 _0521_
*568 _0522_
*569 _0523_
*570 _0524_
*571 _0525_
*572 _0526_
*573 _0527_
*574 _0528_
*575 _0529_
*576 _0530_
*577 _0531_
*578 _0532_
*579 _0533_
*580 _0534_
*581 _0535_
*582 _0536_
*583 _0537_
*584 _0538_
*585 _0539_
*586 _0540_
*587 _0541_
*588 _0542_
*589 _0543_
*590 _0544_
*591 _0545_
*592 _0546_
*593 _0547_
*594 _0548_
*595 _0549_
*596 _0550_
*597 _0551_
*598 _0552_
*599 _0553_
*600 _0554_
*601 _0555_
*602 _0556_
*603 _0557_
*604 _0558_
*605 _0559_
*606 _0560_
*607 _0561_
*608 _0562_
*609 _0563_
*610 _0564_
*611 _0565_
*612 _0566_
*613 _0567_
*614 _0568_
*615 _0569_
*616 _0570_
*617 _0571_
*618 _0572_
*619 _0573_
*620 _0574_
*621 _0575_
*622 _0576_
*623 _0577_
*624 _0578_
*625 _0579_
*626 _0580_
*627 _0581_
*628 _0582_
*629 clknet_0_clk
*630 clknet_3_0__leaf_clk
*631 clknet_3_1__leaf_clk
*632 clknet_3_2__leaf_clk
*633 clknet_3_3__leaf_clk
*634 clknet_3_4__leaf_clk
*635 clknet_3_5__leaf_clk
*636 clknet_3_6__leaf_clk
*637 clknet_3_7__leaf_clk
*638 factorizer\.factors\[0\]
*639 factorizer\.factors\[10\]
*640 factorizer\.factors\[11\]
*641 factorizer\.factors\[12\]
*642 factorizer\.factors\[13\]
*643 factorizer\.factors\[15\]
*644 factorizer\.factors\[17\]
*645 factorizer\.factors\[1\]
*646 factorizer\.factors\[2\]
*647 factorizer\.factors\[3\]
*648 factorizer\.factors\[4\]
*649 factorizer\.factors\[5\]
*650 factorizer\.factors\[6\]
*651 factorizer\.factors\[7\]
*652 factorizer\.factors\[8\]
*653 factorizer\.factors\[9\]
*654 factorizer\.mod_eleven\[0\]
*655 factorizer\.mod_eleven\[1\]
*656 factorizer\.mod_eleven\[2\]
*657 factorizer\.mod_eleven\[3\]
*658 factorizer\.mod_eleven\[4\]
*659 factorizer\.mod_eleven\[5\]
*660 factorizer\.mod_five\[0\]
*661 factorizer\.mod_five\[1\]
*662 factorizer\.mod_five\[2\]
*663 factorizer\.mod_five\[3\]
*664 factorizer\.mod_five\[4\]
*665 factorizer\.mod_nine\[0\]
*666 factorizer\.mod_nine\[1\]
*667 factorizer\.mod_nine\[2\]
*668 factorizer\.mod_nine\[3\]
*669 factorizer\.mod_nine\[4\]
*670 factorizer\.mod_nineteen\[0\]
*671 factorizer\.mod_nineteen\[1\]
*672 factorizer\.mod_nineteen\[2\]
*673 factorizer\.mod_nineteen\[3\]
*674 factorizer\.mod_nineteen\[4\]
*675 factorizer\.mod_nineteen\[5\]
*676 factorizer\.mod_nineteen\[6\]
*677 factorizer\.mod_seven\[0\]
*678 factorizer\.mod_seven\[1\]
*679 factorizer\.mod_seven\[2\]
*680 factorizer\.mod_seven\[3\]
*681 factorizer\.mod_seven\[4\]
*682 factorizer\.mod_seventeen\[0\]
*683 factorizer\.mod_seventeen\[1\]
*684 factorizer\.mod_seventeen\[2\]
*685 factorizer\.mod_seventeen\[3\]
*686 factorizer\.mod_seventeen\[4\]
*687 factorizer\.mod_seventeen\[5\]
*688 factorizer\.mod_seventeen\[6\]
*689 factorizer\.mod_thirteen\[0\]
*690 factorizer\.mod_thirteen\[1\]
*691 factorizer\.mod_thirteen\[2\]
*692 factorizer\.mod_thirteen\[3\]
*693 factorizer\.mod_thirteen\[4\]
*694 factorizer\.mod_thirteen\[5\]
*695 factorizer\.mod_three\[0\]
*696 factorizer\.mod_three\[1\]
*697 factorizer\.mod_three\[2\]
*698 factorizer\.mod_three\[3\]
*699 net1
*700 net2
*701 net3
*702 net4
*703 net5
*704 net6
*705 net7
*706 net8
*707 net9
*708 new_digit\[0\]
*709 new_digit\[1\]
*710 new_digit\[2\]
*711 new_digit\[3\]
*712 old_input\[0\]
*713 old_input\[1\]
*714 old_input\[2\]
*715 old_input\[3\]
*716 old_input\[4\]
*717 old_input\[5\]
*718 old_input\[6\]
*719 old_input\[7\]
*720 second_counter\[0\]
*721 second_counter\[10\]
*722 second_counter\[11\]
*723 second_counter\[12\]
*724 second_counter\[13\]
*725 second_counter\[14\]
*726 second_counter\[15\]
*727 second_counter\[16\]
*728 second_counter\[17\]
*729 second_counter\[18\]
*730 second_counter\[19\]
*731 second_counter\[1\]
*732 second_counter\[20\]
*733 second_counter\[21\]
*734 second_counter\[22\]
*735 second_counter\[23\]
*736 second_counter\[2\]
*737 second_counter\[3\]
*738 second_counter\[4\]
*739 second_counter\[5\]
*740 second_counter\[6\]
*741 second_counter\[7\]
*742 second_counter\[8\]
*743 second_counter\[9\]
*744 seg7decoder\.counter\[0\]
*745 seg7decoder\.counter\[1\]
*746 seg7decoder\.counter\[2\]
*747 seg7decoder\.counter\[3\]
*748 FILLER_0_109
*749 FILLER_0_113
*750 FILLER_0_125
*751 FILLER_0_137
*752 FILLER_0_141
*753 FILLER_0_15
*754 FILLER_0_153
*755 FILLER_0_165
*756 FILLER_0_169
*757 FILLER_0_181
*758 FILLER_0_193
*759 FILLER_0_197
*760 FILLER_0_209
*761 FILLER_0_221
*762 FILLER_0_225
*763 FILLER_0_237
*764 FILLER_0_249
*765 FILLER_0_253
*766 FILLER_0_265
*767 FILLER_0_27
*768 FILLER_0_277
*769 FILLER_0_281
*770 FILLER_0_29
*771 FILLER_0_293
*772 FILLER_0_3
*773 FILLER_0_305
*774 FILLER_0_309
*775 FILLER_0_321
*776 FILLER_0_333
*777 FILLER_0_337
*778 FILLER_0_349
*779 FILLER_0_41
*780 FILLER_0_53
*781 FILLER_0_57
*782 FILLER_0_69
*783 FILLER_0_81
*784 FILLER_0_85
*785 FILLER_0_97
*786 FILLER_10_104
*787 FILLER_10_113
*788 FILLER_10_125
*789 FILLER_10_135
*790 FILLER_10_139
*791 FILLER_10_141
*792 FILLER_10_145
*793 FILLER_10_15
*794 FILLER_10_152
*795 FILLER_10_172
*796 FILLER_10_193
*797 FILLER_10_197
*798 FILLER_10_206
*799 FILLER_10_216
*800 FILLER_10_22
*801 FILLER_10_225
*802 FILLER_10_232
*803 FILLER_10_236
*804 FILLER_10_244
*805 FILLER_10_253
*806 FILLER_10_261
*807 FILLER_10_269
*808 FILLER_10_287
*809 FILLER_10_29
*810 FILLER_10_298
*811 FILLER_10_3
*812 FILLER_10_306
*813 FILLER_10_309
*814 FILLER_10_321
*815 FILLER_10_331
*816 FILLER_10_344
*817 FILLER_10_51
*818 FILLER_10_61
*819 FILLER_10_68
*820 FILLER_10_80
*821 FILLER_10_85
*822 FILLER_11_109
*823 FILLER_11_113
*824 FILLER_11_124
*825 FILLER_11_135
*826 FILLER_11_143
*827 FILLER_11_150
*828 FILLER_11_158
*829 FILLER_11_166
*830 FILLER_11_169
*831 FILLER_11_174
*832 FILLER_11_186
*833 FILLER_11_196
*834 FILLER_11_216
*835 FILLER_11_225
*836 FILLER_11_231
*837 FILLER_11_239
*838 FILLER_11_25
*839 FILLER_11_250
*840 FILLER_11_254
*841 FILLER_11_264
*842 FILLER_11_268
*843 FILLER_11_276
*844 FILLER_11_281
*845 FILLER_11_290
*846 FILLER_11_3
*847 FILLER_11_300
*848 FILLER_11_308
*849 FILLER_11_31
*850 FILLER_11_313
*851 FILLER_11_321
*852 FILLER_11_331
*853 FILLER_11_335
*854 FILLER_11_337
*855 FILLER_11_342
*856 FILLER_11_37
*857 FILLER_11_48
*858 FILLER_11_57
*859 FILLER_11_63
*860 FILLER_11_68
*861 FILLER_11_80
*862 FILLER_11_92
*863 FILLER_12_110
*864 FILLER_12_118
*865 FILLER_12_135
*866 FILLER_12_139
*867 FILLER_12_141
*868 FILLER_12_151
*869 FILLER_12_161
*870 FILLER_12_171
*871 FILLER_12_178
*872 FILLER_12_186
*873 FILLER_12_194
*874 FILLER_12_197
*875 FILLER_12_205
*876 FILLER_12_217
*877 FILLER_12_225
*878 FILLER_12_230
*879 FILLER_12_238
*880 FILLER_12_247
*881 FILLER_12_251
*882 FILLER_12_253
*883 FILLER_12_26
*884 FILLER_12_272
*885 FILLER_12_29
*886 FILLER_12_296
*887 FILLER_12_3
*888 FILLER_12_309
*889 FILLER_12_315
*890 FILLER_12_321
*891 FILLER_12_333
*892 FILLER_12_342
*893 FILLER_12_39
*894 FILLER_12_51
*895 FILLER_12_71
*896 FILLER_12_83
*897 FILLER_12_85
*898 FILLER_12_9
*899 FILLER_12_97
*900 FILLER_13_100
*901 FILLER_13_110
*902 FILLER_13_113
*903 FILLER_13_13
*904 FILLER_13_135
*905 FILLER_13_143
*906 FILLER_13_151
*907 FILLER_13_166
*908 FILLER_13_169
*909 FILLER_13_178
*910 FILLER_13_185
*911 FILLER_13_213
*912 FILLER_13_222
*913 FILLER_13_225
*914 FILLER_13_23
*915 FILLER_13_247
*916 FILLER_13_27
*917 FILLER_13_271
*918 FILLER_13_278
*919 FILLER_13_281
*920 FILLER_13_286
*921 FILLER_13_293
*922 FILLER_13_3
*923 FILLER_13_305
*924 FILLER_13_309
*925 FILLER_13_329
*926 FILLER_13_335
*927 FILLER_13_337
*928 FILLER_13_346
*929 FILLER_13_38
*930 FILLER_13_46
*931 FILLER_13_54
*932 FILLER_13_57
*933 FILLER_13_63
*934 FILLER_13_80
*935 FILLER_13_9
*936 FILLER_14_11
*937 FILLER_14_116
*938 FILLER_14_127
*939 FILLER_14_137
*940 FILLER_14_141
*941 FILLER_14_145
*942 FILLER_14_151
*943 FILLER_14_162
*944 FILLER_14_17
*945 FILLER_14_172
*946 FILLER_14_179
*947 FILLER_14_191
*948 FILLER_14_195
*949 FILLER_14_197
*950 FILLER_14_205
*951 FILLER_14_214
*952 FILLER_14_224
*953 FILLER_14_233
*954 FILLER_14_241
*955 FILLER_14_245
*956 FILLER_14_251
*957 FILLER_14_253
*958 FILLER_14_26
*959 FILLER_14_262
*960 FILLER_14_271
*961 FILLER_14_280
*962 FILLER_14_288
*963 FILLER_14_29
*964 FILLER_14_3
*965 FILLER_14_306
*966 FILLER_14_309
*967 FILLER_14_313
*968 FILLER_14_321
*969 FILLER_14_337
*970 FILLER_14_344
*971 FILLER_14_38
*972 FILLER_14_42
*973 FILLER_14_46
*974 FILLER_14_54
*975 FILLER_14_65
*976 FILLER_14_75
*977 FILLER_14_83
*978 FILLER_14_85
*979 FILLER_14_97
*980 FILLER_15_102
*981 FILLER_15_110
*982 FILLER_15_113
*983 FILLER_15_119
*984 FILLER_15_128
*985 FILLER_15_138
*986 FILLER_15_146
*987 FILLER_15_155
*988 FILLER_15_166
*989 FILLER_15_169
*990 FILLER_15_181
*991 FILLER_15_189
*992 FILLER_15_196
*993 FILLER_15_205
*994 FILLER_15_219
*995 FILLER_15_223
*996 FILLER_15_225
*997 FILLER_15_230
*998 FILLER_15_239
*999 FILLER_15_248
*1000 FILLER_15_255
*1001 FILLER_15_264
*1002 FILLER_15_275
*1003 FILLER_15_279
*1004 FILLER_15_281
*1005 FILLER_15_29
*1006 FILLER_15_293
*1007 FILLER_15_3
*1008 FILLER_15_302
*1009 FILLER_15_309
*1010 FILLER_15_313
*1011 FILLER_15_318
*1012 FILLER_15_327
*1013 FILLER_15_334
*1014 FILLER_15_337
*1015 FILLER_15_349
*1016 FILLER_15_42
*1017 FILLER_15_54
*1018 FILLER_15_57
*1019 FILLER_15_67
*1020 FILLER_15_79
*1021 FILLER_15_9
*1022 FILLER_15_90
*1023 FILLER_16_103
*1024 FILLER_16_115
*1025 FILLER_16_124
*1026 FILLER_16_133
*1027 FILLER_16_139
*1028 FILLER_16_141
*1029 FILLER_16_153
*1030 FILLER_16_163
*1031 FILLER_16_174
*1032 FILLER_16_186
*1033 FILLER_16_190
*1034 FILLER_16_197
*1035 FILLER_16_206
*1036 FILLER_16_215
*1037 FILLER_16_228
*1038 FILLER_16_235
*1039 FILLER_16_248
*1040 FILLER_16_253
*1041 FILLER_16_26
*1042 FILLER_16_265
*1043 FILLER_16_274
*1044 FILLER_16_282
*1045 FILLER_16_287
*1046 FILLER_16_29
*1047 FILLER_16_297
*1048 FILLER_16_3
*1049 FILLER_16_305
*1050 FILLER_16_309
*1051 FILLER_16_316
*1052 FILLER_16_320
*1053 FILLER_16_329
*1054 FILLER_16_340
*1055 FILLER_16_348
*1056 FILLER_16_37
*1057 FILLER_16_43
*1058 FILLER_16_52
*1059 FILLER_16_72
*1060 FILLER_16_81
*1061 FILLER_16_85
*1062 FILLER_16_9
*1063 FILLER_17_110
*1064 FILLER_17_113
*1065 FILLER_17_123
*1066 FILLER_17_13
*1067 FILLER_17_130
*1068 FILLER_17_142
*1069 FILLER_17_148
*1070 FILLER_17_152
*1071 FILLER_17_160
*1072 FILLER_17_169
*1073 FILLER_17_190
*1074 FILLER_17_202
*1075 FILLER_17_215
*1076 FILLER_17_223
*1077 FILLER_17_225
*1078 FILLER_17_232
*1079 FILLER_17_244
*1080 FILLER_17_248
*1081 FILLER_17_252
*1082 FILLER_17_268
*1083 FILLER_17_277
*1084 FILLER_17_281
*1085 FILLER_17_287
*1086 FILLER_17_291
*1087 FILLER_17_299
*1088 FILLER_17_3
*1089 FILLER_17_307
*1090 FILLER_17_315
*1091 FILLER_17_321
*1092 FILLER_17_325
*1093 FILLER_17_33
*1094 FILLER_17_331
*1095 FILLER_17_335
*1096 FILLER_17_337
*1097 FILLER_17_342
*1098 FILLER_17_41
*1099 FILLER_17_54
*1100 FILLER_17_57
*1101 FILLER_17_81
*1102 FILLER_17_93
*1103 FILLER_18_107
*1104 FILLER_18_115
*1105 FILLER_18_132
*1106 FILLER_18_141
*1107 FILLER_18_15
*1108 FILLER_18_154
*1109 FILLER_18_163
*1110 FILLER_18_171
*1111 FILLER_18_178
*1112 FILLER_18_186
*1113 FILLER_18_193
*1114 FILLER_18_197
*1115 FILLER_18_210
*1116 FILLER_18_219
*1117 FILLER_18_235
*1118 FILLER_18_247
*1119 FILLER_18_25
*1120 FILLER_18_251
*1121 FILLER_18_253
*1122 FILLER_18_271
*1123 FILLER_18_279
*1124 FILLER_18_29
*1125 FILLER_18_293
*1126 FILLER_18_3
*1127 FILLER_18_303
*1128 FILLER_18_307
*1129 FILLER_18_309
*1130 FILLER_18_322
*1131 FILLER_18_336
*1132 FILLER_18_343
*1133 FILLER_18_349
*1134 FILLER_18_37
*1135 FILLER_18_44
*1136 FILLER_18_66
*1137 FILLER_18_73
*1138 FILLER_18_82
*1139 FILLER_18_85
*1140 FILLER_19_109
*1141 FILLER_19_113
*1142 FILLER_19_131
*1143 FILLER_19_138
*1144 FILLER_19_149
*1145 FILLER_19_15
*1146 FILLER_19_157
*1147 FILLER_19_166
*1148 FILLER_19_169
*1149 FILLER_19_176
*1150 FILLER_19_183
*1151 FILLER_19_189
*1152 FILLER_19_193
*1153 FILLER_19_205
*1154 FILLER_19_213
*1155 FILLER_19_222
*1156 FILLER_19_225
*1157 FILLER_19_237
*1158 FILLER_19_241
*1159 FILLER_19_248
*1160 FILLER_19_259
*1161 FILLER_19_266
*1162 FILLER_19_270
*1163 FILLER_19_278
*1164 FILLER_19_281
*1165 FILLER_19_296
*1166 FILLER_19_3
*1167 FILLER_19_308
*1168 FILLER_19_312
*1169 FILLER_19_321
*1170 FILLER_19_329
*1171 FILLER_19_335
*1172 FILLER_19_337
*1173 FILLER_19_346
*1174 FILLER_19_35
*1175 FILLER_19_49
*1176 FILLER_19_55
*1177 FILLER_19_57
*1178 FILLER_19_66
*1179 FILLER_19_70
*1180 FILLER_19_75
*1181 FILLER_19_81
*1182 FILLER_19_98
*1183 FILLER_1_105
*1184 FILLER_1_111
*1185 FILLER_1_113
*1186 FILLER_1_125
*1187 FILLER_1_137
*1188 FILLER_1_149
*1189 FILLER_1_15
*1190 FILLER_1_161
*1191 FILLER_1_167
*1192 FILLER_1_169
*1193 FILLER_1_181
*1194 FILLER_1_193
*1195 FILLER_1_205
*1196 FILLER_1_217
*1197 FILLER_1_223
*1198 FILLER_1_225
*1199 FILLER_1_237
*1200 FILLER_1_249
*1201 FILLER_1_261
*1202 FILLER_1_27
*1203 FILLER_1_273
*1204 FILLER_1_279
*1205 FILLER_1_281
*1206 FILLER_1_293
*1207 FILLER_1_3
*1208 FILLER_1_305
*1209 FILLER_1_317
*1210 FILLER_1_329
*1211 FILLER_1_335
*1212 FILLER_1_337
*1213 FILLER_1_349
*1214 FILLER_1_39
*1215 FILLER_1_51
*1216 FILLER_1_55
*1217 FILLER_1_57
*1218 FILLER_1_69
*1219 FILLER_1_81
*1220 FILLER_1_93
*1221 FILLER_20_109
*1222 FILLER_20_11
*1223 FILLER_20_113
*1224 FILLER_20_117
*1225 FILLER_20_121
*1226 FILLER_20_125
*1227 FILLER_20_137
*1228 FILLER_20_141
*1229 FILLER_20_156
*1230 FILLER_20_16
*1231 FILLER_20_166
*1232 FILLER_20_170
*1233 FILLER_20_176
*1234 FILLER_20_184
*1235 FILLER_20_191
*1236 FILLER_20_195
*1237 FILLER_20_197
*1238 FILLER_20_210
*1239 FILLER_20_218
*1240 FILLER_20_225
*1241 FILLER_20_237
*1242 FILLER_20_247
*1243 FILLER_20_251
*1244 FILLER_20_253
*1245 FILLER_20_26
*1246 FILLER_20_261
*1247 FILLER_20_265
*1248 FILLER_20_288
*1249 FILLER_20_29
*1250 FILLER_20_295
*1251 FILLER_20_3
*1252 FILLER_20_306
*1253 FILLER_20_309
*1254 FILLER_20_315
*1255 FILLER_20_323
*1256 FILLER_20_331
*1257 FILLER_20_339
*1258 FILLER_20_347
*1259 FILLER_20_47
*1260 FILLER_20_59
*1261 FILLER_20_78
*1262 FILLER_20_85
*1263 FILLER_20_93
*1264 FILLER_20_97
*1265 FILLER_21_106
*1266 FILLER_21_110
*1267 FILLER_21_113
*1268 FILLER_21_121
*1269 FILLER_21_129
*1270 FILLER_21_141
*1271 FILLER_21_149
*1272 FILLER_21_15
*1273 FILLER_21_155
*1274 FILLER_21_164
*1275 FILLER_21_169
*1276 FILLER_21_197
*1277 FILLER_21_204
*1278 FILLER_21_212
*1279 FILLER_21_220
*1280 FILLER_21_225
*1281 FILLER_21_230
*1282 FILLER_21_24
*1283 FILLER_21_250
*1284 FILLER_21_258
*1285 FILLER_21_266
*1286 FILLER_21_273
*1287 FILLER_21_279
*1288 FILLER_21_281
*1289 FILLER_21_288
*1290 FILLER_21_3
*1291 FILLER_21_300
*1292 FILLER_21_309
*1293 FILLER_21_319
*1294 FILLER_21_334
*1295 FILLER_21_337
*1296 FILLER_21_349
*1297 FILLER_21_35
*1298 FILLER_21_43
*1299 FILLER_21_55
*1300 FILLER_21_57
*1301 FILLER_21_69
*1302 FILLER_21_88
*1303 FILLER_21_98
*1304 FILLER_22_104
*1305 FILLER_22_111
*1306 FILLER_22_115
*1307 FILLER_22_123
*1308 FILLER_22_133
*1309 FILLER_22_139
*1310 FILLER_22_141
*1311 FILLER_22_149
*1312 FILLER_22_15
*1313 FILLER_22_161
*1314 FILLER_22_167
*1315 FILLER_22_180
*1316 FILLER_22_188
*1317 FILLER_22_194
*1318 FILLER_22_197
*1319 FILLER_22_207
*1320 FILLER_22_214
*1321 FILLER_22_221
*1322 FILLER_22_23
*1323 FILLER_22_240
*1324 FILLER_22_253
*1325 FILLER_22_260
*1326 FILLER_22_27
*1327 FILLER_22_288
*1328 FILLER_22_29
*1329 FILLER_22_297
*1330 FILLER_22_3
*1331 FILLER_22_304
*1332 FILLER_22_309
*1333 FILLER_22_313
*1334 FILLER_22_321
*1335 FILLER_22_345
*1336 FILLER_22_349
*1337 FILLER_22_37
*1338 FILLER_22_49
*1339 FILLER_22_62
*1340 FILLER_22_82
*1341 FILLER_22_85
*1342 FILLER_22_95
*1343 FILLER_23_107
*1344 FILLER_23_111
*1345 FILLER_23_113
*1346 FILLER_23_135
*1347 FILLER_23_150
*1348 FILLER_23_157
*1349 FILLER_23_166
*1350 FILLER_23_169
*1351 FILLER_23_176
*1352 FILLER_23_188
*1353 FILLER_23_195
*1354 FILLER_23_205
*1355 FILLER_23_215
*1356 FILLER_23_222
*1357 FILLER_23_225
*1358 FILLER_23_247
*1359 FILLER_23_271
*1360 FILLER_23_279
*1361 FILLER_23_281
*1362 FILLER_23_291
*1363 FILLER_23_3
*1364 FILLER_23_301
*1365 FILLER_23_31
*1366 FILLER_23_312
*1367 FILLER_23_322
*1368 FILLER_23_334
*1369 FILLER_23_337
*1370 FILLER_23_349
*1371 FILLER_23_45
*1372 FILLER_23_53
*1373 FILLER_23_57
*1374 FILLER_23_75
*1375 FILLER_23_99
*1376 FILLER_24_11
*1377 FILLER_24_113
*1378 FILLER_24_122
*1379 FILLER_24_129
*1380 FILLER_24_137
*1381 FILLER_24_141
*1382 FILLER_24_152
*1383 FILLER_24_160
*1384 FILLER_24_170
*1385 FILLER_24_179
*1386 FILLER_24_187
*1387 FILLER_24_194
*1388 FILLER_24_197
*1389 FILLER_24_21
*1390 FILLER_24_212
*1391 FILLER_24_221
*1392 FILLER_24_228
*1393 FILLER_24_239
*1394 FILLER_24_250
*1395 FILLER_24_253
*1396 FILLER_24_260
*1397 FILLER_24_269
*1398 FILLER_24_27
*1399 FILLER_24_277
*1400 FILLER_24_29
*1401 FILLER_24_295
*1402 FILLER_24_3
*1403 FILLER_24_302
*1404 FILLER_24_309
*1405 FILLER_24_315
*1406 FILLER_24_322
*1407 FILLER_24_332
*1408 FILLER_24_344
*1409 FILLER_24_36
*1410 FILLER_24_47
*1411 FILLER_24_58
*1412 FILLER_24_66
*1413 FILLER_24_71
*1414 FILLER_24_82
*1415 FILLER_24_85
*1416 FILLER_25_109
*1417 FILLER_25_113
*1418 FILLER_25_124
*1419 FILLER_25_136
*1420 FILLER_25_144
*1421 FILLER_25_149
*1422 FILLER_25_156
*1423 FILLER_25_169
*1424 FILLER_25_174
*1425 FILLER_25_186
*1426 FILLER_25_194
*1427 FILLER_25_204
*1428 FILLER_25_21
*1429 FILLER_25_213
*1430 FILLER_25_220
*1431 FILLER_25_225
*1432 FILLER_25_233
*1433 FILLER_25_238
*1434 FILLER_25_242
*1435 FILLER_25_246
*1436 FILLER_25_254
*1437 FILLER_25_258
*1438 FILLER_25_267
*1439 FILLER_25_278
*1440 FILLER_25_281
*1441 FILLER_25_289
*1442 FILLER_25_298
*1443 FILLER_25_3
*1444 FILLER_25_305
*1445 FILLER_25_312
*1446 FILLER_25_319
*1447 FILLER_25_326
*1448 FILLER_25_333
*1449 FILLER_25_337
*1450 FILLER_25_342
*1451 FILLER_25_41
*1452 FILLER_25_49
*1453 FILLER_25_55
*1454 FILLER_25_57
*1455 FILLER_25_81
*1456 FILLER_26_115
*1457 FILLER_26_128
*1458 FILLER_26_134
*1459 FILLER_26_138
*1460 FILLER_26_141
*1461 FILLER_26_145
*1462 FILLER_26_15
*1463 FILLER_26_151
*1464 FILLER_26_159
*1465 FILLER_26_176
*1466 FILLER_26_188
*1467 FILLER_26_197
*1468 FILLER_26_208
*1469 FILLER_26_21
*1470 FILLER_26_220
*1471 FILLER_26_226
*1472 FILLER_26_230
*1473 FILLER_26_234
*1474 FILLER_26_242
*1475 FILLER_26_249
*1476 FILLER_26_253
*1477 FILLER_26_26
*1478 FILLER_26_260
*1479 FILLER_26_272
*1480 FILLER_26_282
*1481 FILLER_26_29
*1482 FILLER_26_291
*1483 FILLER_26_3
*1484 FILLER_26_300
*1485 FILLER_26_309
*1486 FILLER_26_330
*1487 FILLER_26_337
*1488 FILLER_26_344
*1489 FILLER_26_37
*1490 FILLER_26_45
*1491 FILLER_26_57
*1492 FILLER_26_81
*1493 FILLER_26_85
*1494 FILLER_26_91
*1495 FILLER_26_95
*1496 FILLER_27_105
*1497 FILLER_27_110
*1498 FILLER_27_113
*1499 FILLER_27_131
*1500 FILLER_27_137
*1501 FILLER_27_15
*1502 FILLER_27_154
*1503 FILLER_27_165
*1504 FILLER_27_169
*1505 FILLER_27_187
*1506 FILLER_27_195
*1507 FILLER_27_212
*1508 FILLER_27_219
*1509 FILLER_27_223
*1510 FILLER_27_225
*1511 FILLER_27_230
*1512 FILLER_27_234
*1513 FILLER_27_24
*1514 FILLER_27_240
*1515 FILLER_27_257
*1516 FILLER_27_264
*1517 FILLER_27_272
*1518 FILLER_27_278
*1519 FILLER_27_281
*1520 FILLER_27_289
*1521 FILLER_27_299
*1522 FILLER_27_3
*1523 FILLER_27_307
*1524 FILLER_27_320
*1525 FILLER_27_329
*1526 FILLER_27_335
*1527 FILLER_27_337
*1528 FILLER_27_343
*1529 FILLER_27_349
*1530 FILLER_27_37
*1531 FILLER_27_44
*1532 FILLER_27_57
*1533 FILLER_27_61
*1534 FILLER_27_65
*1535 FILLER_27_85
*1536 FILLER_27_97
*1537 FILLER_28_115
*1538 FILLER_28_122
*1539 FILLER_28_129
*1540 FILLER_28_136
*1541 FILLER_28_141
*1542 FILLER_28_153
*1543 FILLER_28_161
*1544 FILLER_28_166
*1545 FILLER_28_174
*1546 FILLER_28_184
*1547 FILLER_28_190
*1548 FILLER_28_194
*1549 FILLER_28_197
*1550 FILLER_28_208
*1551 FILLER_28_218
*1552 FILLER_28_227
*1553 FILLER_28_239
*1554 FILLER_28_246
*1555 FILLER_28_25
*1556 FILLER_28_253
*1557 FILLER_28_261
*1558 FILLER_28_271
*1559 FILLER_28_29
*1560 FILLER_28_290
*1561 FILLER_28_3
*1562 FILLER_28_300
*1563 FILLER_28_309
*1564 FILLER_28_314
*1565 FILLER_28_325
*1566 FILLER_28_334
*1567 FILLER_28_342
*1568 FILLER_28_47
*1569 FILLER_28_71
*1570 FILLER_28_80
*1571 FILLER_28_85
*1572 FILLER_28_90
*1573 FILLER_29_102
*1574 FILLER_29_110
*1575 FILLER_29_113
*1576 FILLER_29_122
*1577 FILLER_29_126
*1578 FILLER_29_144
*1579 FILLER_29_156
*1580 FILLER_29_162
*1581 FILLER_29_166
*1582 FILLER_29_169
*1583 FILLER_29_187
*1584 FILLER_29_191
*1585 FILLER_29_195
*1586 FILLER_29_207
*1587 FILLER_29_220
*1588 FILLER_29_225
*1589 FILLER_29_230
*1590 FILLER_29_246
*1591 FILLER_29_257
*1592 FILLER_29_266
*1593 FILLER_29_278
*1594 FILLER_29_281
*1595 FILLER_29_286
*1596 FILLER_29_29
*1597 FILLER_29_297
*1598 FILLER_29_3
*1599 FILLER_29_306
*1600 FILLER_29_315
*1601 FILLER_29_324
*1602 FILLER_29_332
*1603 FILLER_29_337
*1604 FILLER_29_342
*1605 FILLER_29_38
*1606 FILLER_29_45
*1607 FILLER_29_53
*1608 FILLER_29_57
*1609 FILLER_29_63
*1610 FILLER_29_69
*1611 FILLER_29_9
*1612 FILLER_29_94
*1613 FILLER_29_98
*1614 FILLER_2_109
*1615 FILLER_2_121
*1616 FILLER_2_133
*1617 FILLER_2_139
*1618 FILLER_2_141
*1619 FILLER_2_15
*1620 FILLER_2_153
*1621 FILLER_2_165
*1622 FILLER_2_177
*1623 FILLER_2_189
*1624 FILLER_2_195
*1625 FILLER_2_197
*1626 FILLER_2_209
*1627 FILLER_2_221
*1628 FILLER_2_233
*1629 FILLER_2_245
*1630 FILLER_2_251
*1631 FILLER_2_253
*1632 FILLER_2_265
*1633 FILLER_2_27
*1634 FILLER_2_277
*1635 FILLER_2_289
*1636 FILLER_2_29
*1637 FILLER_2_3
*1638 FILLER_2_301
*1639 FILLER_2_307
*1640 FILLER_2_309
*1641 FILLER_2_321
*1642 FILLER_2_333
*1643 FILLER_2_345
*1644 FILLER_2_349
*1645 FILLER_2_41
*1646 FILLER_2_53
*1647 FILLER_2_65
*1648 FILLER_2_77
*1649 FILLER_2_83
*1650 FILLER_2_85
*1651 FILLER_2_97
*1652 FILLER_30_108
*1653 FILLER_30_11
*1654 FILLER_30_120
*1655 FILLER_30_128
*1656 FILLER_30_136
*1657 FILLER_30_141
*1658 FILLER_30_147
*1659 FILLER_30_155
*1660 FILLER_30_161
*1661 FILLER_30_17
*1662 FILLER_30_173
*1663 FILLER_30_185
*1664 FILLER_30_194
*1665 FILLER_30_197
*1666 FILLER_30_202
*1667 FILLER_30_222
*1668 FILLER_30_229
*1669 FILLER_30_241
*1670 FILLER_30_245
*1671 FILLER_30_250
*1672 FILLER_30_253
*1673 FILLER_30_26
*1674 FILLER_30_264
*1675 FILLER_30_270
*1676 FILLER_30_274
*1677 FILLER_30_282
*1678 FILLER_30_289
*1679 FILLER_30_29
*1680 FILLER_30_297
*1681 FILLER_30_3
*1682 FILLER_30_305
*1683 FILLER_30_309
*1684 FILLER_30_322
*1685 FILLER_30_328
*1686 FILLER_30_345
*1687 FILLER_30_349
*1688 FILLER_30_36
*1689 FILLER_30_42
*1690 FILLER_30_49
*1691 FILLER_30_73
*1692 FILLER_30_82
*1693 FILLER_30_85
*1694 FILLER_31_101
*1695 FILLER_31_109
*1696 FILLER_31_113
*1697 FILLER_31_124
*1698 FILLER_31_135
*1699 FILLER_31_145
*1700 FILLER_31_153
*1701 FILLER_31_158
*1702 FILLER_31_16
*1703 FILLER_31_166
*1704 FILLER_31_169
*1705 FILLER_31_177
*1706 FILLER_31_189
*1707 FILLER_31_209
*1708 FILLER_31_222
*1709 FILLER_31_225
*1710 FILLER_31_230
*1711 FILLER_31_245
*1712 FILLER_31_256
*1713 FILLER_31_263
*1714 FILLER_31_270
*1715 FILLER_31_278
*1716 FILLER_31_281
*1717 FILLER_31_291
*1718 FILLER_31_297
*1719 FILLER_31_3
*1720 FILLER_31_303
*1721 FILLER_31_309
*1722 FILLER_31_317
*1723 FILLER_31_326
*1724 FILLER_31_333
*1725 FILLER_31_337