*SPEF "ieee 1481-1999"
*DESIGN "tt_um_seven_segment_seconds"
*DATE "11:11:11 Fri 11 11, 1111"
*VENDOR "OpenRCX"
*PROGRAM "Parallel Extraction"
*VERSION "1.0"
*DESIGN_FLOW "NAME_SCOPE LOCAL" "PIN_CAP NONE"
*DIVIDER /
*DELIMITER :
*BUS_DELIMITER []
*T_UNIT 1 NS
*C_UNIT 1 PF
*R_UNIT 1 OHM
*L_UNIT 1 HENRY

*NAME_MAP
*3 clk
*4 ena
*5 rst_n
*6 ui_in[0]
*7 ui_in[1]
*8 ui_in[2]
*9 ui_in[3]
*10 ui_in[4]
*11 ui_in[5]
*12 ui_in[6]
*13 ui_in[7]
*14 uio_in[0]
*15 uio_in[1]
*16 uio_in[2]
*17 uio_in[3]
*18 uio_in[4]
*19 uio_in[5]
*20 uio_in[6]
*21 uio_in[7]
*22 net3
*23 net4
*24 net5
*25 net6
*26 net7
*27 net8
*28 net9
*29 net10
*30 uio_out[0]
*31 uio_out[1]
*32 uio_out[2]
*33 uio_out[3]
*34 uio_out[4]
*35 uio_out[5]
*36 uio_out[6]
*37 uio_out[7]
*38 uo_out[0]
*39 uo_out[1]
*40 uo_out[2]
*41 uo_out[3]
*42 uo_out[4]
*43 uo_out[5]
*44 uo_out[6]
*45 net2
*46 _000_
*47 _001_
*48 _002_
*49 _003_
*50 _004_
*51 _005_
*52 _006_
*53 _007_
*54 _008_
*55 _009_
*56 _010_
*57 _011_
*58 _012_
*59 _013_
*60 _014_
*61 _015_
*62 _016_
*63 _017_
*64 _018_
*65 _019_
*66 _020_
*67 _021_
*68 _022_
*69 _023_
*70 _024_
*71 _025_
*72 _026_
*73 _027_
*74 _028_
*75 _029_
*76 _030_
*77 _031_
*78 _032_
*79 _033_
*80 _034_
*81 _035_
*82 _036_
*83 _037_
*84 _038_
*85 _039_
*86 _040_
*87 _041_
*88 _042_
*89 _043_
*90 _044_
*91 _045_
*92 _046_
*93 _047_
*94 _048_
*95 _049_
*96 _050_
*97 _051_
*98 _052_
*99 _053_
*100 _054_
*101 _055_
*102 _056_
*103 _057_
*104 _058_
*105 _059_
*106 _060_
*107 _061_
*108 _062_
*109 _063_
*110 _064_
*111 _065_
*112 _066_
*113 _067_
*114 _068_
*115 _069_
*116 _070_
*117 _071_
*118 _072_
*119 _073_
*120 _074_
*121 _075_
*122 _076_
*123 _077_
*124 _078_
*125 _079_
*126 _080_
*127 _081_
*128 _082_
*129 _083_
*130 _084_
*131 _085_
*132 _086_
*133 _087_
*134 _088_
*135 _089_
*136 _090_
*137 _091_
*138 _092_
*139 _093_
*140 _094_
*141 _095_
*142 _096_
*143 _097_
*144 _098_
*145 _099_
*146 _100_
*147 _101_
*148 _102_
*149 _103_
*150 _104_
*151 _105_
*152 _106_
*153 _107_
*154 _108_
*155 _109_
*156 _110_
*157 _111_
*158 _112_
*159 _113_
*160 _114_
*161 _115_
*162 _116_
*163 _117_
*164 _118_
*165 _119_
*166 _120_
*167 _121_
*168 _122_
*169 _123_
*170 _124_
*171 _125_
*172 _126_
*173 _127_
*174 _128_
*175 _129_
*176 _130_
*177 _131_
*178 _132_
*179 _133_
*180 _134_
*181 _135_
*182 _136_
*183 _137_
*184 _138_
*185 _139_
*186 _140_
*187 _141_
*188 clknet_0_clk
*189 clknet_2_0__leaf_clk
*190 clknet_2_1__leaf_clk
*191 clknet_2_2__leaf_clk
*192 clknet_2_3__leaf_clk
*193 net1
*194 net11
*195 net12
*196 net13
*197 net14
*198 net15
*199 net16
*200 net17
*201 net18
*202 net19
*203 net20
*204 net21
*205 net22
*206 second_counter\[0\]
*207 second_counter\[10\]
*208 second_counter\[11\]
*209 second_counter\[12\]
*210 second_counter\[13\]
*211 second_counter\[14\]
*212 second_counter\[15\]
*213 second_counter\[16\]
*214 second_counter\[17\]
*215 second_counter\[18\]
*216 second_counter\[19\]
*217 second_counter\[1\]
*218 second_counter\[20\]
*219 second_counter\[21\]
*220 second_counter\[22\]
*221 second_counter\[23\]
*222 second_counter\[2\]
*223 second_counter\[3\]
*224 second_counter\[4\]
*225 second_counter\[5\]
*226 second_counter\[6\]
*227 second_counter\[7\]
*228 second_counter\[8\]
*229 second_counter\[9\]
*230 seg7\.counter\[0\]
*231 seg7\.counter\[1\]
*232 seg7\.counter\[2\]
*233 seg7\.counter\[3\]
*234 FILLER_0_0_109
*235 FILLER_0_0_113
*236 FILLER_0_0_125
*237 FILLER_0_0_137
*238 FILLER_0_0_141
*239 FILLER_0_0_15
*240 FILLER_0_0_153
*241 FILLER_0_0_165
*242 FILLER_0_0_169
*243 FILLER_0_0_181
*244 FILLER_0_0_193
*245 FILLER_0_0_197
*246 FILLER_0_0_209
*247 FILLER_0_0_221
*248 FILLER_0_0_225
*249 FILLER_0_0_237
*250 FILLER_0_0_249
*251 FILLER_0_0_253
*252 FILLER_0_0_265
*253 FILLER_0_0_27
*254 FILLER_0_0_277
*255 FILLER_0_0_281
*256 FILLER_0_0_29
*257 FILLER_0_0_293
*258 FILLER_0_0_3
*259 FILLER_0_0_305
*260 FILLER_0_0_309
*261 FILLER_0_0_321
*262 FILLER_0_0_333
*263 FILLER_0_0_337
*264 FILLER_0_0_349
*265 FILLER_0_0_41
*266 FILLER_0_0_53
*267 FILLER_0_0_57
*268 FILLER_0_0_69
*269 FILLER_0_0_81
*270 FILLER_0_0_85
*271 FILLER_0_0_97
*272 FILLER_0_10_109
*273 FILLER_0_10_121
*274 FILLER_0_10_133
*275 FILLER_0_10_139
*276 FILLER_0_10_141
*277 FILLER_0_10_15
*278 FILLER_0_10_153
*279 FILLER_0_10_165
*280 FILLER_0_10_177
*281 FILLER_0_10_189
*282 FILLER_0_10_195
*283 FILLER_0_10_197
*284 FILLER_0_10_209
*285 FILLER_0_10_221
*286 FILLER_0_10_233
*287 FILLER_0_10_245
*288 FILLER_0_10_251
*289 FILLER_0_10_253
*290 FILLER_0_10_265
*291 FILLER_0_10_27
*292 FILLER_0_10_277
*293 FILLER_0_10_289
*294 FILLER_0_10_29
*295 FILLER_0_10_3
*296 FILLER_0_10_301
*297 FILLER_0_10_307
*298 FILLER_0_10_309
*299 FILLER_0_10_321
*300 FILLER_0_10_333
*301 FILLER_0_10_345
*302 FILLER_0_10_41
*303 FILLER_0_10_53
*304 FILLER_0_10_65
*305 FILLER_0_10_77
*306 FILLER_0_10_83
*307 FILLER_0_10_85
*308 FILLER_0_10_97
*309 FILLER_0_11_105
*310 FILLER_0_11_111
*311 FILLER_0_11_113
*312 FILLER_0_11_125
*313 FILLER_0_11_137
*314 FILLER_0_11_149
*315 FILLER_0_11_15
*316 FILLER_0_11_161
*317 FILLER_0_11_167
*318 FILLER_0_11_169
*319 FILLER_0_11_181
*320 FILLER_0_11_193
*321 FILLER_0_11_205
*322 FILLER_0_11_217
*323 FILLER_0_11_223
*324 FILLER_0_11_225
*325 FILLER_0_11_237
*326 FILLER_0_11_249
*327 FILLER_0_11_261
*328 FILLER_0_11_27
*329 FILLER_0_11_273
*330 FILLER_0_11_279
*331 FILLER_0_11_281
*332 FILLER_0_11_293
*333 FILLER_0_11_3
*334 FILLER_0_11_305
*335 FILLER_0_11_317
*336 FILLER_0_11_329
*337 FILLER_0_11_335
*338 FILLER_0_11_337
*339 FILLER_0_11_349
*340 FILLER_0_11_39
*341 FILLER_0_11_51
*342 FILLER_0_11_55
*343 FILLER_0_11_57
*344 FILLER_0_11_69
*345 FILLER_0_11_81
*346 FILLER_0_11_93
*347 FILLER_0_12_109
*348 FILLER_0_12_121
*349 FILLER_0_12_133
*350 FILLER_0_12_139
*351 FILLER_0_12_141
*352 FILLER_0_12_15
*353 FILLER_0_12_153
*354 FILLER_0_12_165
*355 FILLER_0_12_177
*356 FILLER_0_12_189
*357 FILLER_0_12_195
*358 FILLER_0_12_197
*359 FILLER_0_12_209
*360 FILLER_0_12_221
*361 FILLER_0_12_233
*362 FILLER_0_12_245
*363 FILLER_0_12_251
*364 FILLER_0_12_253
*365 FILLER_0_12_265
*366 FILLER_0_12_27
*367 FILLER_0_12_277
*368 FILLER_0_12_289
*369 FILLER_0_12_29
*370 FILLER_0_12_3
*371 FILLER_0_12_301
*372 FILLER_0_12_307
*373 FILLER_0_12_309
*374 FILLER_0_12_321
*375 FILLER_0_12_333
*376 FILLER_0_12_345
*377 FILLER_0_12_41
*378 FILLER_0_12_53
*379 FILLER_0_12_65
*380 FILLER_0_12_77
*381 FILLER_0_12_83
*382 FILLER_0_12_85
*383 FILLER_0_12_97
*384 FILLER_0_13_105
*385 FILLER_0_13_111
*386 FILLER_0_13_113
*387 FILLER_0_13_125
*388 FILLER_0_13_137
*389 FILLER_0_13_149
*390 FILLER_0_13_15
*391 FILLER_0_13_161
*392 FILLER_0_13_167
*393 FILLER_0_13_169
*394 FILLER_0_13_181
*395 FILLER_0_13_193
*396 FILLER_0_13_205
*397 FILLER_0_13_217
*398 FILLER_0_13_223
*399 FILLER_0_13_225
*400 FILLER_0_13_237
*401 FILLER_0_13_249
*402 FILLER_0_13_261
*403 FILLER_0_13_27
*404 FILLER_0_13_273
*405 FILLER_0_13_279
*406 FILLER_0_13_281
*407 FILLER_0_13_293
*408 FILLER_0_13_3
*409 FILLER_0_13_305
*410 FILLER_0_13_317
*411 FILLER_0_13_329
*412 FILLER_0_13_335
*413 FILLER_0_13_337
*414 FILLER_0_13_349
*415 FILLER_0_13_39
*416 FILLER_0_13_51
*417 FILLER_0_13_55
*418 FILLER_0_13_57
*419 FILLER_0_13_69
*420 FILLER_0_13_81
*421 FILLER_0_13_93
*422 FILLER_0_14_109
*423 FILLER_0_14_121
*424 FILLER_0_14_133
*425 FILLER_0_14_139
*426 FILLER_0_14_141
*427 FILLER_0_14_15
*428 FILLER_0_14_153
*429 FILLER_0_14_165
*430 FILLER_0_14_177
*431 FILLER_0_14_189
*432 FILLER_0_14_195
*433 FILLER_0_14_197
*434 FILLER_0_14_209
*435 FILLER_0_14_221
*436 FILLER_0_14_233
*437 FILLER_0_14_245
*438 FILLER_0_14_251
*439 FILLER_0_14_253
*440 FILLER_0_14_265
*441 FILLER_0_14_27
*442 FILLER_0_14_277
*443 FILLER_0_14_289
*444 FILLER_0_14_29
*445 FILLER_0_14_3
*446 FILLER_0_14_301
*447 FILLER_0_14_307
*448 FILLER_0_14_309
*449 FILLER_0_14_321
*450 FILLER_0_14_333
*451 FILLER_0_14_345
*452 FILLER_0_14_41
*453 FILLER_0_14_53
*454 FILLER_0_14_65
*455 FILLER_0_14_77
*456 FILLER_0_14_83
*457 FILLER_0_14_85
*458 FILLER_0_14_97
*459 FILLER_0_15_105
*460 FILLER_0_15_111
*461 FILLER_0_15_113
*462 FILLER_0_15_125
*463 FILLER_0_15_137
*464 FILLER_0_15_149
*465 FILLER_0_15_15
*466 FILLER_0_15_161
*467 FILLER_0_15_167
*468 FILLER_0_15_169
*469 FILLER_0_15_181
*470 FILLER_0_15_193
*471 FILLER_0_15_205
*472 FILLER_0_15_217
*473 FILLER_0_15_223
*474 FILLER_0_15_225
*475 FILLER_0_15_237
*476 FILLER_0_15_249
*477 FILLER_0_15_261
*478 FILLER_0_15_27
*479 FILLER_0_15_273
*480 FILLER_0_15_279
*481 FILLER_0_15_281
*482 FILLER_0_15_293
*483 FILLER_0_15_3
*484 FILLER_0_15_305
*485 FILLER_0_15_317
*486 FILLER_0_15_329
*487 FILLER_0_15_335
*488 FILLER_0_15_337
*489 FILLER_0_15_349
*490 FILLER_0_15_39
*491 FILLER_0_15_51
*492 FILLER_0_15_55
*493 FILLER_0_15_57
*494 FILLER_0_15_69
*495 FILLER_0_15_81
*496 FILLER_0_15_93
*497 FILLER_0_16_109
*498 FILLER_0_16_121
*499 FILLER_0_16_133
*500 FILLER_0_16_139
*501 FILLER_0_16_141
*502 FILLER_0_16_15
*503 FILLER_0_16_153
*504 FILLER_0_16_165
*505 FILLER_0_16_177
*506 FILLER_0_16_189
*507 FILLER_0_16_195
*508 FILLER_0_16_197
*509 FILLER_0_16_209
*510 FILLER_0_16_221
*511 FILLER_0_16_233
*512 FILLER_0_16_245
*513 FILLER_0_16_251
*514 FILLER_0_16_253
*515 FILLER_0_16_265
*516 FILLER_0_16_27
*517 FILLER_0_16_277
*518 FILLER_0_16_289
*519 FILLER_0_16_29
*520 FILLER_0_16_3
*521 FILLER_0_16_301
*522 FILLER_0_16_307
*523 FILLER_0_16_309
*524 FILLER_0_16_321
*525 FILLER_0_16_333
*526 FILLER_0_16_345
*527 FILLER_0_16_41
*528 FILLER_0_16_53
*529 FILLER_0_16_65
*530 FILLER_0_16_77
*531 FILLER_0_16_83
*532 FILLER_0_16_85
*533 FILLER_0_16_97
*534 FILLER_0_17_105
*535 FILLER_0_17_111
*536 FILLER_0_17_113
*537 FILLER_0_17_125
*538 FILLER_0_17_137
*539 FILLER_0_17_149
*540 FILLER_0_17_15
*541 FILLER_0_17_161
*542 FILLER_0_17_167
*543 FILLER_0_17_169
*544 FILLER_0_17_181
*545 FILLER_0_17_193
*546 FILLER_0_17_205
*547 FILLER_0_17_217
*548 FILLER_0_17_223
*549 FILLER_0_17_225
*550 FILLER_0_17_237
*551 FILLER_0_17_249
*552 FILLER_0_17_261
*553 FILLER_0_17_27
*554 FILLER_0_17_273
*555 FILLER_0_17_279
*556 FILLER_0_17_281
*557 FILLER_0_17_293
*558 FILLER_0_17_3
*559 FILLER_0_17_305
*560 FILLER_0_17_317
*561 FILLER_0_17_329
*562 FILLER_0_17_335
*563 FILLER_0_17_337
*564 FILLER_0_17_349
*565 FILLER_0_17_39
*566 FILLER_0_17_51
*567 FILLER_0_17_55
*568 FILLER_0_17_57
*569 FILLER_0_17_69
*570 FILLER_0_17_81
*571 FILLER_0_17_93
*572 FILLER_0_18_109
*573 FILLER_0_18_121
*574 FILLER_0_18_133
*575 FILLER_0_18_139
*576 FILLER_0_18_141
*577 FILLER_0_18_15
*578 FILLER_0_18_153
*579 FILLER_0_18_165
*580 FILLER_0_18_177
*581 FILLER_0_18_189
*582 FILLER_0_18_195
*583 FILLER_0_18_197
*584 FILLER_0_18_209
*585 FILLER_0_18_221
*586 FILLER_0_18_233
*587 FILLER_0_18_245
*588 FILLER_0_18_251
*589 FILLER_0_18_253
*590 FILLER_0_18_265
*591 FILLER_0_18_27
*592 FILLER_0_18_277
*593 FILLER_0_18_289
*594 FILLER_0_18_29
*595 FILLER_0_18_3
*596 FILLER_0_18_301
*597 FILLER_0_18_307
*598 FILLER_0_18_309
*599 FILLER_0_18_321
*600 FILLER_0_18_333
*601 FILLER_0_18_345
*602 FILLER_0_18_41
*603 FILLER_0_18_53
*604 FILLER_0_18_65
*605 FILLER_0_18_77
*606 FILLER_0_18_83
*607 FILLER_0_18_85
*608 FILLER_0_18_97
*609 FILLER_0_19_105
*610 FILLER_0_19_111
*611 FILLER_0_19_113
*612 FILLER_0_19_125
*613 FILLER_0_19_137
*614 FILLER_0_19_149
*615 FILLER_0_19_15
*616 FILLER_0_19_161
*617 FILLER_0_19_167
*618 FILLER_0_19_169
*619 FILLER_0_19_181
*620 FILLER_0_19_193
*621 FILLER_0_19_205
*622 FILLER_0_19_217
*623 FILLER_0_19_223
*624 FILLER_0_19_225
*625 FILLER_0_19_237
*626 FILLER_0_19_249
*627 FILLER_0_19_261
*628 FILLER_0_19_27
*629 FILLER_0_19_273
*630 FILLER_0_19_279
*631 FILLER_0_19_281
*632 FILLER_0_19_293
*633 FILLER_0_19_3
*634 FILLER_0_19_305
*635 FILLER_0_19_317
*636 FILLER_0_19_329
*637 FILLER_0_19_335
*638 FILLER_0_19_337
*639 FILLER_0_19_349
*640 FILLER_0_19_39
*641 FILLER_0_19_51
*642 FILLER_0_19_55
*643 FILLER_0_19_57
*644 FILLER_0_19_69
*645 FILLER_0_19_81
*646 FILLER_0_19_93
*647 FILLER_0_1_105
*648 FILLER_0_1_111
*649 FILLER_0_1_113
*650 FILLER_0_1_125
*651 FILLER_0_1_137
*652 FILLER_0_1_149
*653 FILLER_0_1_15
*654 FILLER_0_1_161
*655 FILLER_0_1_167
*656 FILLER_0_1_169
*657 FILLER_0_1_181
*658 FILLER_0_1_193
*659 FILLER_0_1_205
*660 FILLER_0_1_217
*661 FILLER_0_1_223
*662 FILLER_0_1_225
*663 FILLER_0_1_237
*664 FILLER_0_1_249
*665 FILLER_0_1_261
*666 FILLER_0_1_27
*667 FILLER_0_1_273
*668 FILLER_0_1_279
*669 FILLER_0_1_281
*670 FILLER_0_1_293
*671 FILLER_0_1_3
*672 FILLER_0_1_305
*673 FILLER_0_1_317
*674 FILLER_0_1_329
*675 FILLER_0_1_335
*676 FILLER_0_1_337
*677 FILLER_0_1_349
*678 FILLER_0_1_39
*679 FILLER_0_1_51
*680 FILLER_0_1_55
*681 FILLER_0_1_57
*682 FILLER_0_1_69
*683 FILLER_0_1_81
*684 FILLER_0_1_93
*685 FILLER_0_20_109
*686 FILLER_0_20_121
*687 FILLER_0_20_133
*688 FILLER_0_20_139
*689 FILLER_0_20_141
*690 FILLER_0_20_15
*691 FILLER_0_20_153
*692 FILLER_0_20_165
*693 FILLER_0_20_177
*694 FILLER_0_20_189
*695 FILLER_0_20_195
*696 FILLER_0_20_197
*697 FILLER_0_20_209
*698 FILLER_0_20_221
*699 FILLER_0_20_233
*700 FILLER_0_20_245
*701 FILLER_0_20_251
*702 FILLER_0_20_253
*703 FILLER_0_20_265
*704 FILLER_0_20_27
*705 FILLER_0_20_277
*706 FILLER_0_20_289
*707 FILLER_0_20_29
*708 FILLER_0_20_3
*709 FILLER_0_20_301
*710 FILLER_0_20_307
*711 FILLER_0_20_309
*712 FILLER_0_20_321
*713 FILLER_0_20_333
*714 FILLER_0_20_345
*715 FILLER_0_20_41
*716 FILLER_0_20_53
*717 FILLER_0_20_65
*718 FILLER_0_20_77
*719 FILLER_0_20_83
*720 FILLER_0_20_85
*721 FILLER_0_20_97
*722 FILLER_0_21_105
*723 FILLER_0_21_111
*724 FILLER_0_21_113
*725 FILLER_0_21_125
*726 FILLER_0_21_137
*727 FILLER_0_21_149
*728 FILLER_0_21_15
*729 FILLER_0_21_161
*730 FILLER_0_21_167
*731 FILLER_0_21_169
*732 FILLER_0_21_181
*733 FILLER_0_21_193
*734 FILLER_0_21_205
*735 FILLER_0_21_217
*736 FILLER_0_21_223
*737 FILLER_0_21_225
*738 FILLER_0_21_237
*739 FILLER_0_21_249
*740 FILLER_0_21_261
*741 FILLER_0_21_27
*742 FILLER_0_21_273
*743 FILLER_0_21_279
*744 FILLER_0_21_281
*745 FILLER_0_21_293
*746 FILLER_0_21_3
*747 FILLER_0_21_305
*748 FILLER_0_21_317
*749 FILLER_0_21_329
*750 FILLER_0_21_335
*751 FILLER_0_21_337
*752 FILLER_0_21_349
*753 FILLER_0_21_39
*754 FILLER_0_21_51
*755 FILLER_0_21_55
*756 FILLER_0_21_57
*757 FILLER_0_21_69
*758 FILLER_0_21_81
*759 FILLER_0_21_93
*760 FILLER_0_22_109
*761 FILLER_0_22_121
*762 FILLER_0_22_133
*763 FILLER_0_22_139
*764 FILLER_0_22_141
*765 FILLER_0_22_15
*766 FILLER_0_22_153
*767 FILLER_0_22_165
*768 FILLER_0_22_177
*769 FILLER_0_22_189
*770 FILLER_0_22_195
*771 FILLER_0_22_197
*772 FILLER_0_22_209
*773 FILLER_0_22_221
*774 FILLER_0_22_233
*775 FILLER_0_22_245
*776 FILLER_0_22_251
*777 FILLER_0_22_253
*778 FILLER_0_22_265
*779 FILLER_0_22_27
*780 FILLER_0_22_277
*781 FILLER_0_22_289
*782 FILLER_0_22_29
*783 FILLER_0_22_3
*784 FILLER_0_22_301
*785 FILLER_0_22_307
*786 FILLER_0_22_309
*787 FILLER_0_22_321
*788 FILLER_0_22_333
*789 FILLER_0_22_345
*790 FILLER_0_22_41
*791 FILLER_0_22_53
*792 FILLER_0_22_65
*793 FILLER_0_22_77
*794 FILLER_0_22_83
*795 FILLER_0_22_85
*796 FILLER_0_22_97
*797 FILLER_0_23_105
*798 FILLER_0_23_111
*799 FILLER_0_23_113
*800 FILLER_0_23_125
*801 FILLER_0_23_137
*802 FILLER_0_23_149
*803 FILLER_0_23_15
*804 FILLER_0_23_161
*805 FILLER_0_23_167
*806 FILLER_0_23_169
*807 FILLER_0_23_181
*808 FILLER_0_23_193
*809 FILLER_0_23_205
*810 FILLER_0_23_217
*811 FILLER_0_23_223
*812 FILLER_0_23_225
*813 FILLER_0_23_237
*814 FILLER_0_23_249
*815 FILLER_0_23_261
*816 FILLER_0_23_27
*817 FILLER_0_23_273
*818 FILLER_0_23_279
*819 FILLER_0_23_281
*820 FILLER_0_23_293
*821 FILLER_0_23_3
*822 FILLER_0_23_305
*823 FILLER_0_23_317
*824 FILLER_0_23_329
*825 FILLER_0_23_335
*826 FILLER_0_23_337
*827 FILLER_0_23_349
*828 FILLER_0_23_39
*829 FILLER_0_23_51
*830 FILLER_0_23_55
*831 FILLER_0_23_57
*832 FILLER_0_23_69
*833 FILLER_0_23_81
*834 FILLER_0_23_93
*835 FILLER_0_24_104
*836 FILLER_0_24_116
*837 FILLER_0_24_128
*838 FILLER_0_24_135
*839 FILLER_0_24_139
*840 FILLER_0_24_141
*841 FILLER_0_24_15
*842 FILLER_0_24_153
*843 FILLER_0_24_165
*844 FILLER_0_24_177
*845 FILLER_0_24_189
*846 FILLER_0_24_195
*847 FILLER_0_24_197
*848 FILLER_0_24_209
*849 FILLER_0_24_221
*850 FILLER_0_24_233
*851 FILLER_0_24_245
*852 FILLER_0_24_251
*853 FILLER_0_24_253
*854 FILLER_0_24_265
*855 FILLER_0_24_27
*856 FILLER_0_24_277
*857 FILLER_0_24_289
*858 FILLER_0_24_29
*859 FILLER_0_24_3
*860 FILLER_0_24_301
*861 FILLER_0_24_307
*862 FILLER_0_24_309
*863 FILLER_0_24_321
*864 FILLER_0_24_333
*865 FILLER_0_24_345
*866 FILLER_0_24_41
*867 FILLER_0_24_53
*868 FILLER_0_24_65
*869 FILLER_0_24_77
*870 FILLER_0_24_83
*871 FILLER_0_24_85
*872 FILLER_0_24_92
*873 FILLER_0_25_101
*874 FILLER_0_25_105
*875 FILLER_0_25_129
*876 FILLER_0_25_15
*877 FILLER_0_25_157
*878 FILLER_0_25_165
*879 FILLER_0_25_169
*880 FILLER_0_25_181
*881 FILLER_0_25_193
*882 FILLER_0_25_205
*883 FILLER_0_25_217
*884 FILLER_0_25_223
*885 FILLER_0_25_225
*886 FILLER_0_25_237
*887 FILLER_0_25_249
*888 FILLER_0_25_261
*889 FILLER_0_25_27
*890 FILLER_0_25_273
*891 FILLER_0_25_279
*892 FILLER_0_25_281
*893 FILLER_0_25_293
*894 FILLER_0_25_3
*895 FILLER_0_25_305
*896 FILLER_0_25_317
*897 FILLER_0_25_329
*898 FILLER_0_25_335
*899 FILLER_0_25_337
*900 FILLER_0_25_349
*901 FILLER_0_25_39
*902 FILLER_0_25_51
*903 FILLER_0_25_55
*904 FILLER_0_25_57
*905 FILLER_0_25_65
*906 FILLER_0_25_70
*907 FILLER_0_25_82
*908 FILLER_0_26_105
*909 FILLER_0_26_113
*910 FILLER_0_26_125
*911 FILLER_0_26_138
*912 FILLER_0_26_141
*913 FILLER_0_26_15
*914 FILLER_0_26_153
*915 FILLER_0_26_157
*916 FILLER_0_26_169
*917 FILLER_0_26_177
*918 FILLER_0_26_187
*919 FILLER_0_26_195
*920 FILLER_0_26_200
*921 FILLER_0_26_212
*922 FILLER_0_26_224
*923 FILLER_0_26_236
*924 FILLER_0_26_248
*925 FILLER_0_26_253
*926 FILLER_0_26_265
*927 FILLER_0_26_27
*928 FILLER_0_26_277
*929 FILLER_0_26_289
*930 FILLER_0_26_29
*931 FILLER_0_26_3
*932 FILLER_0_26_301
*933 FILLER_0_26_307
*934 FILLER_0_26_309
*935 FILLER_0_26_321
*936 FILLER_0_26_333
*937 FILLER_0_26_345
*938 FILLER_0_26_41
*939 FILLER_0_26_49
*940 FILLER_0_26_56
*941 FILLER_0_26_79
*942 FILLER_0_26_83
*943 FILLER_0_26_85
*944 FILLER_0_26_93
*945 FILLER_0_27_110
*946 FILLER_0_27_113
*947 FILLER_0_27_140
*948 FILLER_0_27_15
*949 FILLER_0_27_179
*950 FILLER_0_27_195
*951 FILLER_0_27_212
*952 FILLER_0_27_225
*953 FILLER_0_27_237
*954 FILLER_0_27_249
*955 FILLER_0_27_261
*956 FILLER_0_27_27
*957 FILLER_0_27_273
*958 FILLER_0_27_279
*959 FILLER_0_27_281
*960 FILLER_0_27_293
*961 FILLER_0_27_3
*962 FILLER_0_27_305
*963 FILLER_0_27_317
*964 FILLER_0_27_329
*965 FILLER_0_27_335
*966 FILLER_0_27_337
*967 FILLER_0_27_349
*968 FILLER_0_27_35
*969 FILLER_0_27_53
*970 FILLER_0_27_65
*971 FILLER_0_28_107
*972 FILLER_0_28_126
*973 FILLER_0_28_139
*974 FILLER_0_28_141
*975 FILLER_0_28_15
*976 FILLER_0_28_153
*977 FILLER_0_28_161
*978 FILLER_0_28_184
*979 FILLER_0_28_197
*980 FILLER_0_28_209
*981 FILLER_0_28_221
*982 FILLER_0_28_233
*983 FILLER_0_28_245
*984 FILLER_0_28_251
*985 FILLER_0_28_253
*986 FILLER_0_28_265
*987 FILLER_0_28_27
*988 FILLER_0_28_277
*989 FILLER_0_28_289
*990 FILLER_0_28_29
*991 FILLER_0_28_3
*992 FILLER_0_28_301
*993 FILLER_0_28_307
*994 FILLER_0_28_309
*995 FILLER_0_28_321
*996 FILLER_0_28_33
*997 FILLER_0_28_333
*998 FILLER_0_28_345
*999 FILLER_0_28_37
*1000 FILLER_0_28_49
*1001 FILLER_0_28_74
*1002 FILLER_0_28_82
*1003 FILLER_0_28_85
*1004 FILLER_0_28_99
*1005 FILLER_0_29_102
*1006 FILLER_0_29_110
*1007 FILLER_0_29_121
*1008 FILLER_0_29_129
*1009 FILLER_0_29_134
*1010 FILLER_0_29_140
*1011 FILLER_0_29_148
*1012 FILLER_0_29_15
*1013 FILLER_0_29_166
*1014 FILLER_0_29_180
*1015 FILLER_0_29_194
*1016 FILLER_0_29_211
*1017 FILLER_0_29_223
*1018 FILLER_0_29_225
*1019 FILLER_0_29_237
*1020 FILLER_0_29_249
*1021 FILLER_0_29_261
*1022 FILLER_0_29_27
*1023 FILLER_0_29_273
*1024 FILLER_0_29_279
*1025 FILLER_0_29_281
*1026 FILLER_0_29_293
*1027 FILLER_0_29_3
*1028 FILLER_0_29_305
*1029 FILLER_0_29_317
*1030 FILLER_0_29_329
*1031 FILLER_0_29_335
*1032 FILLER_0_29_337
*1033 FILLER_0_29_349
*1034 FILLER_0_29_45
*1035 FILLER_0_29_51
*1036 FILLER_0_29_55
*1037 FILLER_0_29_57
*1038 FILLER_0_29_85
*1039 FILLER_0_29_93
*1040 FILLER_0_2_109
*1041 FILLER_0_2_121
*1042 FILLER_0_2_133
*1043 FILLER_0_2_139
*1044 FILLER_0_2_141
*1045 FILLER_0_2_15
*1046 FILLER_0_2_153
*1047 FILLER_0_2_165
*1048 FILLER_0_2_177
*1049 FILLER_0_2_189
*1050 FILLER_0_2_195
*1051 FILLER_0_2_197
*1052 FILLER_0_2_209
*1053 FILLER_0_2_221
*1054 FILLER_0_2_233
*1055 FILLER_0_2_245
*1056 FILLER_0_2_251
*1057 FILLER_0_2_253
*1058 FILLER_0_2_265
*1059 FILLER_0_2_27
*1060 FILLER_0_2_277
*1061 FILLER_0_2_289
*1062 FILLER_0_2_29
*1063 FILLER_0_2_3
*1064 FILLER_0_2_301
*1065 FILLER_0_2_307
*1066 FILLER_0_2_309
*1067 FILLER_0_2_321
*1068 FILLER_0_2_333
*1069 FILLER_0_2_345
*1070 FILLER_0_2_41
*1071 FILLER_0_2_53
*1072 FILLER_0_2_65
*1073 FILLER_0_2_77
*1074 FILLER_0_2_83
*1075 FILLER_0_2_85
*1076 FILLER_0_2_97
*1077 FILLER_0_30_110
*1078 FILLER_0_30_116
*1079 FILLER_0_30_127
*1080 FILLER_0_30_131
*1081 FILLER_0_30_136
*1082 FILLER_0_30_15
*1083 FILLER_0_30_158
*1084 FILLER_0_30_176
*1085 FILLER_0_30_184
*1086 FILLER_0_30_193
*1087 FILLER_0_30_213
*1088 FILLER_0_30_225
*1089 FILLER_0_30_237
*1090 FILLER_0_30_249
*1091 FILLER_0_30_253
*1092 FILLER_0_30_265
*1093 FILLER_0_30_27
*1094 FILLER_0_30_277
*1095 FILLER_0_30_289
*1096 FILLER_0_30_29
*1097 FILLER_0_30_3
*1098 FILLER_0_30_301
*1099 FILLER_0_30_307
*1100 FILLER_0_30_309
*1101 FILLER_0_30_321
*1102 FILLER_0_30_333
*1103 FILLER_0_30_345
*1104 FILLER_0_30_37
*1105 FILLER_0_30_65
*1106 FILLER_0_30_69
*1107 FILLER_0_30_78
*1108 FILLER_0_30_85
*1109 FILLER_0_30_93
*1110 FILLER_0_31_105
*1111 FILLER_0_31_111
*1112 FILLER_0_31_113
*1113 FILLER_0_31_127
*1114 FILLER_0_31_15
*1115 FILLER_0_31_159
*1116 FILLER_0_31_169
*1117 FILLER_0_31_177
*1118 FILLER_0_31_189
*1119 FILLER_0_31_193
*1120 FILLER_0_31_198
*1121 FILLER_0_31_206
*1122 FILLER_0_31_225
*1123 FILLER_0_31_237
*1124 FILLER_0_31_249
*1125 FILLER_0_31_261
*1126 FILLER_0_31_273
*1127 FILLER_0_31_279
*1128 FILLER_0_31_281
*1129 FILLER_0_31_293
*1130 FILLER_0_31_3
*1131 FILLER_0_31_305
*1132 FILLER_0_31_317
*1133 FILLER_0_31_329
*1134 FILLER_0_31_335
*1135 FILLER_0_31_337
*1136 FILLER_0_31_349
*1137 FILLER_0_31_35
*1138 FILLER_0_31_50
*1139 FILLER_0_31_98
*1140 FILLER_0_32_119
*1141 FILLER_0_32_137
*1142 FILLER_0_32_141
*1143 FILLER_0_32_15
*1144 FILLER_0_32_164
*1145 FILLER_0_32_187
*1146 FILLER_0_32_21
*1147 FILLER_0_32_212
*1148 FILLER_0_32_224
*1149 FILLER_0_32_236
*1150 FILLER_0_32_248
*1151 FILLER_0_32_25
*1152 FILLER_0_32_253
*1153 FILLER_0_32_265
*1154 FILLER_0_32_277
*1155 FILLER_0_32_289
*1156 FILLER_0_32_29
*1157 FILLER_0_32_3
*1158 FILLER_0_32_301
*1159 FILLER_0_32_307
*1160 FILLER_0_32_309
*1161 FILLER_0_32_321
*1162 FILLER_0_32_333
*1163 FILLER_0_32_345
*1164 FILLER_0_32_44
*1165 FILLER_0_32_50
*1166 FILLER_0_32_74
*1167 FILLER_0_32_82
*1168 FILLER_0_32_85
*1169 FILLER_0_32_93
*1170 FILLER_0_33_109
*1171 FILLER_0_33_113
*1172 FILLER_0_33_129
*1173 FILLER_0_33_15
*1174 FILLER_0_33_158
*1175 FILLER_0_33_164
*1176 FILLER_0_33_169
*1177 FILLER_0_33_187
*1178 FILLER_0_33_199
*1179 FILLER_0_33_210
*1180 FILLER_0_33_222
*1181 FILLER_0_33_241
*1182 FILLER_0_33_253
*1183 FILLER_0_33_265
*1184 FILLER_0_33_27
*1185 FILLER_0_33_277
*1186 FILLER_0_33_281
*1187 FILLER_0_33_293
*1188 FILLER_0_33_3
*1189 FILLER_0_33_305
*1190 FILLER_0_33_317
*1191 FILLER_0_33_329
*1192 FILLER_0_33_335
*1193 FILLER_0_33_337
*1194 FILLER_0_33_349
*1195 FILLER_0_33_39
*1196 FILLER_0_33_49
*1197 FILLER_0_33_55
*1198 FILLER_0_33_57
*1199 FILLER_0_33_67
*1200 FILLER_0_33_88
*1201 FILLER_0_33_96
*1202 FILLER_0_34_114
*1203 FILLER_0_34_120
*1204 FILLER_0_34_129
*1205 FILLER_0_34_137
*1206 FILLER_0_34_141
*1207 FILLER_0_34_15
*1208 FILLER_0_34_153
*1209 FILLER_0_34_188
*1210 FILLER_0_34_197
*1211 FILLER_0_34_205
*1212 FILLER_0_34_227
*1213 FILLER_0_34_23
*1214 FILLER_0_34_239
*1215 FILLER_0_34_251
*1216 FILLER_0_34_253
*1217 FILLER_0_34_265
*1218 FILLER_0_34_277
*1219 FILLER_0_34_289
*1220 FILLER_0_34_3
*1221 FILLER_0_34_301
*1222 FILLER_0_34_307
*1223 FILLER_0_34_309
*1224 FILLER_0_34_321
*1225 FILLER_0_34_333
*1226 FILLER_0_34_345
*1227 FILLER_0_34_56
*1228 FILLER_0_34_66
*1229 FILLER_0_34_72
*1230 FILLER_0_34_81
*1231 FILLER_0_35_103
*1232 FILLER_0_35_111
*1233 FILLER_0_35_119
*1234 FILLER_0_35_140
*1235 FILLER_0_35_15
*1236 FILLER_0_35_152
*1237 FILLER_0_35_164
*1238 FILLER_0_35_175
*1239 FILLER_0_35_191
*1240 FILLER_0_35_207
*1241 FILLER_0_35_215
*1242 FILLER_0_35_221
*1243 FILLER_0_35_225
*1244 FILLER_0_35_237
*1245 FILLER_0_35_249
*1246 FILLER_0_35_261
*1247 FILLER_0_35_27
*1248 FILLER_0_35_273
*1249 FILLER_0_35_279
*1250 FILLER_0_35_281
*1251 FILLER_0_35_293
*1252 FILLER_0_35_3
*1253 FILLER_0_35_305
*1254 FILLER_0_35_317
*1255 FILLER_0_35_329
*1256 FILLER_0_35_335
*1257 FILLER_0_35_337
*1258 FILLER_0_35_349
*1259 FILLER_0_35_39
*1260 FILLER_0_35_45
*1261 FILLER_0_35_54
*1262 FILLER_0_35_62
*1263 FILLER_0_35_74
*1264 FILLER_0_35_91
*1265 FILLER_0_36_117
*1266 FILLER_0_36_129
*1267 FILLER_0_36_137
*1268 FILLER_0_36_141
*1269 FILLER_0_36_15
*1270 FILLER_0_36_194
*1271 FILLER_0_36_202
*1272 FILLER_0_36_215
*1273 FILLER_0_36_222
*1274 FILLER_0_36_23
*1275 FILLER_0_36_234
*1276 FILLER_0_36_246
*1277 FILLER_0_36_253
*1278 FILLER_0_36_265
*1279 FILLER_0_36_277
*1280 FILLER_0_36_289
*1281 FILLER_0_36_3
*1282 FILLER_0_36_301
*1283 FILLER_0_36_307
*1284 FILLER_0_36_309
*1285 FILLER_0_36_321
*1286 FILLER_0_36_333
*1287 FILLER_0_36_345
*1288 FILLER_0_36_45
*1289 FILLER_0_36_59
*1290 FILLER_0_36_67
*1291 FILLER_0_36_85
*1292 FILLER_0_36_93
*1293 FILLER_0_37_102
*1294 FILLER_0_37_108
*1295 FILLER_0_37_113
*1296 FILLER_0_37_148
*1297 FILLER_0_37_15
*1298 FILLER_0_37_152
*1299 FILLER_0_37_156
*1300 FILLER_0_37_189
*1301 FILLER_0_37_201
*1302 FILLER_0_37_213
*1303 FILLER_0_37_221
*1304 FILLER_0_37_244
*1305 FILLER_0_37_256
*1306 FILLER_0_37_268
*1307 FILLER_0_37_27
*1308 FILLER_0_37_281
*1309 FILLER_0_37_293
*1310 FILLER_0_37_3
*1311 FILLER_0_37_305
*1312 FILLER_0_37_317
*1313 FILLER_0_37_329
*1314 FILLER_0_37_335
*1315 FILLER_0_37_337
*1316 FILLER_0_37_349
*1317 FILLER_0_37_39
*1318 FILLER_0_37_47
*1319 FILLER_0_37_54
*1320 FILLER_0_37_57
*1321 FILLER_0_37_72
*1322 FILLER_0_37_84
*1323 FILLER_0_37_96
*1324 FILLER_0_38_113
*1325 FILLER_0_38_118
*1326 FILLER_0_38_130
*1327 FILLER_0_38_138
*1328 FILLER_0_38_14
*1329 FILLER_0_38_144
*1330 FILLER_0_38_165
*1331 FILLER_0_38_169
*1332 FILLER_0_38_177
*1333 FILLER_0_38_18
*1334 FILLER_0_38_197
*1335 FILLER_0_38_201
*1336 FILLER_0_38_219
*1337 FILLER_0_38_22
*1338 FILLER_0_38_223
*1339 FILLER_0_38_225
*1340 FILLER_0_38_237
*1341 FILLER_0_38_249
*1342 FILLER_0_38_253
*1343 FILLER_0_38_265
*1344 FILLER_0_38_277
*1345 FILLER_0_38_281
*1346 FILLER_0_38_293
*1347 FILLER_0_38_3
*1348 FILLER_0_38_305
*1349 FILLER_0_38_309
*1350 FILLER_0_38_32
*1351 FILLER_0_38_321
*1352 FILLER_0_38_329
*1353 FILLER_0_38_335
*1354 FILLER_0_38_337
*1355 FILLER_0_38_349
*1356 FILLER_0_38_38
*1357 FILLER_0_38_42
*1358 FILLER_0_38_46
*1359 FILLER_0_38_50
*1360 FILLER_0_38_54
*1361 FILLER_0_38_73
*1362 FILLER_0_38_78
*1363 FILLER_0_3_105
*1364 FILLER_0_3_111
*1365 FILLER_0_3_113
*1366 FILLER_0_3_125
*1367 FILLER_0_3_137
*1368 FILLER_0_3_149
*1369 FILLER_0_3_15
*1370 FILLER_0_3_161
*1371 FILLER_0_3_167
*1372 FILLER_0_3_169
*1373 FILLER_0_3_181
*1374 FILLER_0_3_193
*1375 FILLER_0_3_205
*1376 FILLER_0_3_217
*1377 FILLER_0_3_223
*1378 FILLER_0_3_225
*1379 FILLER_0_3_237
*1380 FILLER_0_3_249
*1381 FILLER_0_3_261
*1382 FILLER_0_3_27
*1383 FILLER_0_3_273
*1384 FILLER_0_3_279
*1385 FILLER_0_3_281
*1386 FILLER_0_3_293
*1387 FILLER_0_3_3
*1388 FILLER_0_3_305
*1389 FILLER_0_3_317
*1390 FILLER_0_3_329
*1391 FILLER_0_3_335
*1392 FILLER_0_3_337
*1393 FILLER_0_3_349
*1394 FILLER_0_3_39
*1395 FILLER_0_3_51
*1396 FILLER_0_3_55
*1397 FILLER_0_3_57
*1398 FILLER_0_3_69
*1399 FILLER_0_3_81
*1400 FILLER_0_3_93
*1401 FILLER_0_4_109
*1402 FILLER_0_4_121
*1403 FILLER_0_4_133
*1404 FILLER_0_4_139
*1405 FILLER_0_4_141
*1406 FILLER_0_4_15
*1407 FILLER_0_4_153
*1408 FILLER_0_4_165
*1409 FILLER_0_4_177
*1410 FILLER_0_4_189
*1411 FILLER_0_4_195
*1412 FILLER_0_4_197
*1413 FILLER_0_4_209
*1414 FILLER_0_4_221
*1415 FILLER_0_4_233
*1416 FILLER_0_4_245
*1417 FILLER_0_4_251
*1418 FILLER_0_4_253
*1419 FILLER_0_4_265
*1420 FILLER_0_4_27
*1421 FILLER_0_4_277
*1422 FILLER_0_4_289
*1423 FILLER_0_4_29
*1424 FILLER_0_4_3
*1425 FILLER_0_4_301
*1426 FILLER_0_4_307
*1427 FILLER_0_4_309
*1428 FILLER_0_4_321
*1429 FILLER_0_4_333
*1430 FILLER_0_4_345
*1431 FILLER_0_4_41
*1432 FILLER_0_4_53
*1433 FILLER_0_4_65
*1434 FILLER_0_4_77
*1435 FILLER_0_4_83
*1436 FILLER_0_4_85
*1437 FILLER_0_4_97
*1438 FILLER_0_5_105
*1439 FILLER_0_5_111
*1440 FILLER_0_5_113
*1441 FILLER_0_5_125
*1442 FILLER_0_5_137
*1443 FILLER_0_5_149
*1444 FILLER_0_5_15
*1445 FILLER_0_5_161
*1446 FILLER_0_5_167
*1447 FILLER_0_5_169
*1448 FILLER_0_5_181
*1449 FILLER_0_5_193
*1450 FILLER_0_5_205
*1451 FILLER_0_5_217
*1452 FILLER_0_5_223
*1453 FILLER_0_5_225
*1454 FILLER_0_5_237
*1455 FILLER_0_5_249
*1456 FILLER_0_5_261
*1457 FILLER_0_5_27
*1458 FILLER_0_5_273
*1459 FILLER_0_5_279
*1460 FILLER_0_5_281
*1461 FILLER_0_5_293
*1462 FILLER_0_5_3
*1463 FILLER_0_5_305
*1464 FILLER_0_5_317
*1465 FILLER_0_5_329
*1466 FILLER_0_5_335
*1467 FILLER_0_5_337
*1468 FILLER_0_5_349
*1469 FILLER_0_5_39
*1470 FILLER_0_5_51
*1471 FILLER_0_5_55
*1472 FILLER_0_5_57
*1473 FILLER_0_5_69
*1474 FILLER_0_5_81
*1475 FILLER_0_5_93
*1476 FILLER_0_6_109
*1477 FILLER_0_6_121
*1478 FILLER_0_6_133
*1479 FILLER_0_6_139
*1480 FILLER_0_6_141
*1481 FILLER_0_6_15
*1482 FILLER_0_6_153
*1483 FILLER_0_6_165
*1484 FILLER_0_6_177
*1485 FILLER_0_6_189
*1486 FILLER_0_6_195
*1487 FILLER_0_6_197
*1488 FILLER_0_6_209
*1489 FILLER_0_6_221
*1490 FILLER_0_6_233
*1491 FILLER_0_6_245
*1492 FILLER_0_6_251
*1493 FILLER_0_6_253
*1494 FILLER_0_6_265
*1495 FILLER_0_6_27
*1496 FILLER_0_6_277
*1497 FILLER_0_6_289
*1498 FILLER_0_6_29
*1499 FILLER_0_6_3
*1500 FILLER_0_6_301
*1501 FILLER_0_6_307
*1502 FILLER_0_6_309
*1503 FILLER_0_6_321
*1504 FILLER_0_6_333
*1505 FILLER_0_6_345
*1506 FILLER_0_6_41
*1507 FILLER_0_6_53
*1508 FILLER_0_6_65
*1509 FILLER_0_6_77