*SPEF "ieee 1481-1999"
*DESIGN "tt_um_factory_test"
*DATE "11:11:11 Fri 11 11, 1111"
*VENDOR "OpenRCX"
*PROGRAM "Parallel Extraction"
*VERSION "1.0"
*DESIGN_FLOW "NAME_SCOPE LOCAL" "PIN_CAP NONE"
*DIVIDER /
*DELIMITER :
*BUS_DELIMITER []
*T_UNIT 1 NS
*C_UNIT 1 PF
*R_UNIT 1 OHM
*L_UNIT 1 HENRY

*NAME_MAP
*3 clk
*4 ena
*5 rst_n
*6 ui_in[0]
*7 ui_in[1]
*8 ui_in[2]
*9 ui_in[3]
*10 ui_in[4]
*11 ui_in[5]
*12 ui_in[6]
*13 ui_in[7]
*14 uio_in[0]
*15 uio_in[1]
*16 uio_in[2]
*17 uio_in[3]
*18 uio_in[4]
*19 uio_in[5]
*20 uio_in[6]
*21 uio_in[7]
*22 uio_oe[0]
*23 uio_oe[1]
*24 uio_oe[2]
*25 uio_oe[3]
*26 uio_oe[4]
*27 uio_oe[5]
*28 uio_oe[6]
*29 uio_oe[7]
*30 uio_out[0]
*31 uio_out[1]
*32 uio_out[2]
*33 uio_out[3]
*34 uio_out[4]
*35 uio_out[5]
*36 uio_out[6]
*37 uio_out[7]
*38 uo_out[0]
*39 uo_out[1]
*40 uo_out[2]
*41 uo_out[3]
*42 uo_out[4]
*43 uo_out[5]
*44 uo_out[6]
*45 uo_out[7]
*46 _000_
*47 _001_
*48 _002_
*49 _003_
*50 _004_
*51 _005_
*52 _006_
*53 _007_
*54 _008_
*55 _009_
*56 _010_
*57 _011_
*58 _012_
*59 _013_
*60 _014_
*61 _015_
*62 _016_
*63 _017_
*64 _018_
*65 _019_
*66 _020_
*67 _021_
*68 _022_
*69 _023_
*70 _024_
*71 _025_
*72 _026_
*73 _027_
*74 _028_
*75 _029_
*76 _030_
*77 _031_
*78 _032_
*79 _033_
*80 clknet_0_clk
*81 clknet_1_0__leaf_clk
*82 clknet_1_1__leaf_clk
*83 cnt\[0\]
*84 cnt\[1\]
*85 cnt\[2\]
*86 cnt\[3\]
*87 cnt\[4\]
*88 cnt\[5\]
*89 cnt\[6\]
*90 cnt\[7\]
*91 net1
*92 net10
*93 net11
*94 net12
*95 net13
*96 net14
*97 net2
*98 net3
*99 net4
*100 net5
*101 net6
*102 net7
*103 net8
*104 net9
*105 rst_n_i
*106 FILLER_0_109
*107 FILLER_0_113
*108 FILLER_0_125
*109 FILLER_0_137
*110 FILLER_0_141
*111 FILLER_0_15
*112 FILLER_0_153
*113 FILLER_0_165
*114 FILLER_0_169
*115 FILLER_0_181
*116 FILLER_0_193
*117 FILLER_0_197
*118 FILLER_0_209
*119 FILLER_0_221
*120 FILLER_0_225
*121 FILLER_0_237
*122 FILLER_0_249
*123 FILLER_0_253
*124 FILLER_0_265
*125 FILLER_0_27
*126 FILLER_0_277
*127 FILLER_0_281
*128 FILLER_0_29
*129 FILLER_0_293
*130 FILLER_0_3
*131 FILLER_0_305
*132 FILLER_0_309
*133 FILLER_0_321
*134 FILLER_0_333
*135 FILLER_0_337
*136 FILLER_0_349
*137 FILLER_0_41
*138 FILLER_0_53
*139 FILLER_0_57
*140 FILLER_0_69
*141 FILLER_0_81
*142 FILLER_0_85
*143 FILLER_0_97
*144 FILLER_10_109
*145 FILLER_10_121
*146 FILLER_10_133
*147 FILLER_10_139
*148 FILLER_10_141
*149 FILLER_10_15
*150 FILLER_10_153
*151 FILLER_10_165
*152 FILLER_10_177
*153 FILLER_10_189
*154 FILLER_10_195
*155 FILLER_10_197
*156 FILLER_10_209
*157 FILLER_10_221
*158 FILLER_10_233
*159 FILLER_10_245
*160 FILLER_10_251
*161 FILLER_10_253
*162 FILLER_10_265
*163 FILLER_10_27
*164 FILLER_10_277
*165 FILLER_10_289
*166 FILLER_10_29
*167 FILLER_10_3
*168 FILLER_10_301
*169 FILLER_10_307
*170 FILLER_10_309
*171 FILLER_10_321
*172 FILLER_10_333
*173 FILLER_10_345
*174 FILLER_10_349
*175 FILLER_10_41
*176 FILLER_10_53
*177 FILLER_10_65
*178 FILLER_10_77
*179 FILLER_10_83
*180 FILLER_10_85
*181 FILLER_10_97
*182 FILLER_11_105
*183 FILLER_11_111
*184 FILLER_11_113
*185 FILLER_11_125
*186 FILLER_11_137
*187 FILLER_11_149
*188 FILLER_11_15
*189 FILLER_11_161
*190 FILLER_11_167
*191 FILLER_11_169
*192 FILLER_11_181
*193 FILLER_11_193
*194 FILLER_11_205
*195 FILLER_11_217
*196 FILLER_11_223
*197 FILLER_11_225
*198 FILLER_11_237
*199 FILLER_11_249
*200 FILLER_11_261
*201 FILLER_11_27
*202 FILLER_11_273
*203 FILLER_11_279
*204 FILLER_11_281
*205 FILLER_11_293
*206 FILLER_11_3
*207 FILLER_11_305
*208 FILLER_11_317
*209 FILLER_11_329
*210 FILLER_11_335
*211 FILLER_11_337
*212 FILLER_11_349
*213 FILLER_11_39
*214 FILLER_11_51
*215 FILLER_11_55
*216 FILLER_11_57
*217 FILLER_11_69
*218 FILLER_11_81
*219 FILLER_11_93
*220 FILLER_12_109
*221 FILLER_12_121
*222 FILLER_12_133
*223 FILLER_12_139
*224 FILLER_12_141
*225 FILLER_12_15
*226 FILLER_12_153
*227 FILLER_12_165
*228 FILLER_12_177
*229 FILLER_12_189
*230 FILLER_12_195
*231 FILLER_12_197
*232 FILLER_12_209
*233 FILLER_12_221
*234 FILLER_12_233
*235 FILLER_12_245
*236 FILLER_12_251
*237 FILLER_12_253
*238 FILLER_12_265
*239 FILLER_12_27
*240 FILLER_12_277
*241 FILLER_12_289
*242 FILLER_12_29
*243 FILLER_12_3
*244 FILLER_12_301
*245 FILLER_12_307
*246 FILLER_12_309
*247 FILLER_12_321
*248 FILLER_12_333
*249 FILLER_12_345
*250 FILLER_12_349
*251 FILLER_12_41
*252 FILLER_12_53
*253 FILLER_12_65
*254 FILLER_12_77
*255 FILLER_12_83
*256 FILLER_12_85
*257 FILLER_12_97
*258 FILLER_13_105
*259 FILLER_13_111
*260 FILLER_13_113
*261 FILLER_13_125
*262 FILLER_13_137
*263 FILLER_13_149
*264 FILLER_13_15
*265 FILLER_13_161
*266 FILLER_13_167
*267 FILLER_13_169
*268 FILLER_13_181
*269 FILLER_13_193
*270 FILLER_13_205
*271 FILLER_13_217
*272 FILLER_13_223
*273 FILLER_13_225
*274 FILLER_13_237
*275 FILLER_13_249
*276 FILLER_13_261
*277 FILLER_13_27
*278 FILLER_13_273
*279 FILLER_13_279
*280 FILLER_13_281
*281 FILLER_13_293
*282 FILLER_13_3
*283 FILLER_13_305
*284 FILLER_13_317
*285 FILLER_13_329
*286 FILLER_13_335
*287 FILLER_13_337
*288 FILLER_13_349
*289 FILLER_13_39
*290 FILLER_13_51
*291 FILLER_13_55
*292 FILLER_13_57
*293 FILLER_13_69
*294 FILLER_13_81
*295 FILLER_13_93
*296 FILLER_14_109
*297 FILLER_14_121
*298 FILLER_14_133
*299 FILLER_14_139
*300 FILLER_14_141
*301 FILLER_14_15
*302 FILLER_14_153
*303 FILLER_14_165
*304 FILLER_14_177
*305 FILLER_14_189
*306 FILLER_14_195
*307 FILLER_14_197
*308 FILLER_14_209
*309 FILLER_14_221
*310 FILLER_14_233
*311 FILLER_14_245
*312 FILLER_14_251
*313 FILLER_14_253
*314 FILLER_14_265
*315 FILLER_14_27
*316 FILLER_14_277
*317 FILLER_14_289
*318 FILLER_14_29
*319 FILLER_14_3
*320 FILLER_14_301
*321 FILLER_14_307
*322 FILLER_14_309
*323 FILLER_14_321
*324 FILLER_14_333
*325 FILLER_14_345
*326 FILLER_14_349
*327 FILLER_14_41
*328 FILLER_14_53
*329 FILLER_14_65
*330 FILLER_14_77
*331 FILLER_14_83
*332 FILLER_14_85
*333 FILLER_14_97
*334 FILLER_15_105
*335 FILLER_15_111
*336 FILLER_15_113
*337 FILLER_15_125
*338 FILLER_15_137
*339 FILLER_15_149
*340 FILLER_15_15
*341 FILLER_15_161
*342 FILLER_15_167
*343 FILLER_15_169
*344 FILLER_15_181
*345 FILLER_15_193
*346 FILLER_15_205
*347 FILLER_15_217
*348 FILLER_15_223
*349 FILLER_15_225
*350 FILLER_15_237
*351 FILLER_15_249
*352 FILLER_15_261
*353 FILLER_15_27
*354 FILLER_15_273
*355 FILLER_15_279
*356 FILLER_15_281
*357 FILLER_15_293
*358 FILLER_15_3
*359 FILLER_15_305
*360 FILLER_15_317
*361 FILLER_15_329
*362 FILLER_15_335
*363 FILLER_15_337
*364 FILLER_15_349
*365 FILLER_15_39
*366 FILLER_15_51
*367 FILLER_15_55
*368 FILLER_15_57
*369 FILLER_15_69
*370 FILLER_15_81
*371 FILLER_15_93
*372 FILLER_16_109
*373 FILLER_16_121
*374 FILLER_16_133
*375 FILLER_16_139
*376 FILLER_16_141
*377 FILLER_16_15
*378 FILLER_16_153
*379 FILLER_16_165
*380 FILLER_16_177
*381 FILLER_16_189
*382 FILLER_16_195
*383 FILLER_16_197
*384 FILLER_16_209
*385 FILLER_16_221
*386 FILLER_16_233
*387 FILLER_16_245
*388 FILLER_16_251
*389 FILLER_16_253
*390 FILLER_16_265
*391 FILLER_16_27
*392 FILLER_16_277
*393 FILLER_16_289
*394 FILLER_16_29
*395 FILLER_16_3
*396 FILLER_16_301
*397 FILLER_16_307
*398 FILLER_16_309
*399 FILLER_16_321
*400 FILLER_16_333
*401 FILLER_16_345
*402 FILLER_16_349
*403 FILLER_16_41
*404 FILLER_16_53
*405 FILLER_16_65
*406 FILLER_16_77
*407 FILLER_16_83
*408 FILLER_16_85
*409 FILLER_16_97
*410 FILLER_17_105
*411 FILLER_17_111
*412 FILLER_17_113
*413 FILLER_17_125
*414 FILLER_17_137
*415 FILLER_17_149
*416 FILLER_17_15
*417 FILLER_17_161
*418 FILLER_17_167
*419 FILLER_17_169
*420 FILLER_17_181
*421 FILLER_17_193
*422 FILLER_17_205
*423 FILLER_17_217
*424 FILLER_17_223
*425 FILLER_17_225
*426 FILLER_17_237
*427 FILLER_17_249
*428 FILLER_17_261
*429 FILLER_17_27
*430 FILLER_17_273
*431 FILLER_17_279
*432 FILLER_17_281
*433 FILLER_17_293
*434 FILLER_17_3
*435 FILLER_17_305
*436 FILLER_17_317
*437 FILLER_17_329
*438 FILLER_17_335
*439 FILLER_17_337
*440 FILLER_17_349
*441 FILLER_17_39
*442 FILLER_17_51
*443 FILLER_17_55
*444 FILLER_17_57
*445 FILLER_17_69
*446 FILLER_17_81
*447 FILLER_17_93
*448 FILLER_18_109
*449 FILLER_18_121
*450 FILLER_18_133
*451 FILLER_18_139
*452 FILLER_18_141
*453 FILLER_18_15
*454 FILLER_18_153
*455 FILLER_18_165
*456 FILLER_18_177
*457 FILLER_18_189
*458 FILLER_18_195
*459 FILLER_18_197
*460 FILLER_18_209
*461 FILLER_18_221
*462 FILLER_18_233
*463 FILLER_18_245
*464 FILLER_18_251
*465 FILLER_18_253
*466 FILLER_18_265
*467 FILLER_18_27
*468 FILLER_18_277
*469 FILLER_18_289
*470 FILLER_18_29
*471 FILLER_18_3
*472 FILLER_18_301
*473 FILLER_18_307
*474 FILLER_18_309
*475 FILLER_18_321
*476 FILLER_18_333
*477 FILLER_18_345
*478 FILLER_18_349
*479 FILLER_18_41
*480 FILLER_18_53
*481 FILLER_18_65
*482 FILLER_18_77
*483 FILLER_18_83
*484 FILLER_18_85
*485 FILLER_18_97
*486 FILLER_19_105
*487 FILLER_19_111
*488 FILLER_19_113
*489 FILLER_19_125
*490 FILLER_19_137
*491 FILLER_19_149
*492 FILLER_19_15
*493 FILLER_19_161
*494 FILLER_19_167
*495 FILLER_19_169
*496 FILLER_19_181
*497 FILLER_19_193
*498 FILLER_19_205
*499 FILLER_19_217
*500 FILLER_19_223
*501 FILLER_19_225
*502 FILLER_19_237
*503 FILLER_19_249
*504 FILLER_19_261
*505 FILLER_19_27
*506 FILLER_19_273
*507 FILLER_19_279
*508 FILLER_19_281
*509 FILLER_19_293
*510 FILLER_19_3
*511 FILLER_19_305
*512 FILLER_19_317
*513 FILLER_19_329
*514 FILLER_19_335
*515 FILLER_19_337
*516 FILLER_19_349
*517 FILLER_19_39
*518 FILLER_19_51
*519 FILLER_19_55
*520 FILLER_19_57
*521 FILLER_19_69
*522 FILLER_19_81
*523 FILLER_19_93
*524 FILLER_1_105
*525 FILLER_1_111
*526 FILLER_1_113
*527 FILLER_1_125
*528 FILLER_1_137
*529 FILLER_1_149
*530 FILLER_1_15
*531 FILLER_1_161
*532 FILLER_1_167
*533 FILLER_1_169
*534 FILLER_1_181
*535 FILLER_1_193
*536 FILLER_1_205
*537 FILLER_1_217
*538 FILLER_1_223
*539 FILLER_1_225
*540 FILLER_1_237
*541 FILLER_1_249
*542 FILLER_1_261
*543 FILLER_1_27
*544 FILLER_1_273
*545 FILLER_1_279
*546 FILLER_1_281
*547 FILLER_1_293
*548 FILLER_1_3
*549 FILLER_1_305
*550 FILLER_1_317
*551 FILLER_1_329
*552 FILLER_1_335
*553 FILLER_1_337
*554 FILLER_1_349
*555 FILLER_1_39
*556 FILLER_1_51
*557 FILLER_1_55
*558 FILLER_1_57
*559 FILLER_1_69
*560 FILLER_1_81
*561 FILLER_1_93
*562 FILLER_20_109
*563 FILLER_20_121
*564 FILLER_20_133
*565 FILLER_20_139
*566 FILLER_20_141
*567 FILLER_20_15
*568 FILLER_20_153
*569 FILLER_20_165
*570 FILLER_20_177
*571 FILLER_20_189
*572 FILLER_20_195
*573 FILLER_20_197
*574 FILLER_20_209
*575 FILLER_20_221
*576 FILLER_20_233
*577 FILLER_20_245
*578 FILLER_20_251
*579 FILLER_20_253
*580 FILLER_20_265
*581 FILLER_20_27
*582 FILLER_20_277
*583 FILLER_20_289
*584 FILLER_20_29
*585 FILLER_20_3
*586 FILLER_20_301
*587 FILLER_20_307
*588 FILLER_20_309
*589 FILLER_20_321
*590 FILLER_20_333
*591 FILLER_20_345
*592 FILLER_20_349
*593 FILLER_20_41
*594 FILLER_20_53
*595 FILLER_20_65
*596 FILLER_20_77
*597 FILLER_20_83
*598 FILLER_20_85
*599 FILLER_20_97
*600 FILLER_21_105
*601 FILLER_21_111
*602 FILLER_21_113
*603 FILLER_21_125
*604 FILLER_21_137
*605 FILLER_21_149
*606 FILLER_21_15
*607 FILLER_21_161
*608 FILLER_21_167
*609 FILLER_21_169
*610 FILLER_21_181
*611 FILLER_21_193
*612 FILLER_21_205
*613 FILLER_21_217
*614 FILLER_21_223
*615 FILLER_21_225
*616 FILLER_21_237
*617 FILLER_21_249
*618 FILLER_21_261
*619 FILLER_21_27
*620 FILLER_21_273
*621 FILLER_21_279
*622 FILLER_21_281
*623 FILLER_21_293
*624 FILLER_21_3
*625 FILLER_21_305
*626 FILLER_21_317
*627 FILLER_21_329
*628 FILLER_21_335
*629 FILLER_21_337
*630 FILLER_21_349
*631 FILLER_21_39
*632 FILLER_21_51
*633 FILLER_21_55
*634 FILLER_21_57
*635 FILLER_21_69
*636 FILLER_21_81
*637 FILLER_21_93
*638 FILLER_22_109
*639 FILLER_22_121
*640 FILLER_22_133
*641 FILLER_22_139
*642 FILLER_22_141
*643 FILLER_22_15
*644 FILLER_22_153
*645 FILLER_22_165
*646 FILLER_22_177
*647 FILLER_22_189
*648 FILLER_22_195
*649 FILLER_22_197
*650 FILLER_22_209
*651 FILLER_22_221
*652 FILLER_22_233
*653 FILLER_22_245
*654 FILLER_22_251
*655 FILLER_22_253
*656 FILLER_22_265
*657 FILLER_22_27
*658 FILLER_22_277
*659 FILLER_22_289
*660 FILLER_22_29
*661 FILLER_22_3
*662 FILLER_22_301
*663 FILLER_22_307
*664 FILLER_22_309
*665 FILLER_22_321
*666 FILLER_22_333
*667 FILLER_22_345
*668 FILLER_22_349
*669 FILLER_22_41
*670 FILLER_22_53
*671 FILLER_22_65
*672 FILLER_22_77
*673 FILLER_22_83
*674 FILLER_22_85
*675 FILLER_22_97
*676 FILLER_23_105
*677 FILLER_23_111
*678 FILLER_23_113
*679 FILLER_23_125
*680 FILLER_23_137
*681 FILLER_23_149
*682 FILLER_23_15
*683 FILLER_23_161
*684 FILLER_23_167
*685 FILLER_23_169
*686 FILLER_23_181
*687 FILLER_23_193
*688 FILLER_23_205
*689 FILLER_23_217
*690 FILLER_23_223
*691 FILLER_23_225
*692 FILLER_23_237
*693 FILLER_23_249
*694 FILLER_23_261
*695 FILLER_23_27
*696 FILLER_23_273
*697 FILLER_23_279
*698 FILLER_23_281
*699 FILLER_23_293
*700 FILLER_23_3
*701 FILLER_23_305
*702 FILLER_23_317
*703 FILLER_23_329
*704 FILLER_23_335
*705 FILLER_23_337
*706 FILLER_23_349
*707 FILLER_23_39
*708 FILLER_23_51
*709 FILLER_23_55
*710 FILLER_23_57
*711 FILLER_23_69
*712 FILLER_23_81
*713 FILLER_23_93
*714 FILLER_24_109
*715 FILLER_24_121
*716 FILLER_24_133
*717 FILLER_24_139
*718 FILLER_24_141
*719 FILLER_24_15
*720 FILLER_24_153
*721 FILLER_24_165
*722 FILLER_24_177
*723 FILLER_24_189
*724 FILLER_24_195
*725 FILLER_24_197
*726 FILLER_24_209
*727 FILLER_24_221
*728 FILLER_24_233
*729 FILLER_24_245
*730 FILLER_24_251
*731 FILLER_24_253
*732 FILLER_24_265
*733 FILLER_24_27
*734 FILLER_24_277
*735 FILLER_24_289
*736 FILLER_24_29
*737 FILLER_24_3
*738 FILLER_24_301
*739 FILLER_24_307
*740 FILLER_24_309
*741 FILLER_24_321
*742 FILLER_24_333
*743 FILLER_24_345
*744 FILLER_24_349
*745 FILLER_24_41
*746 FILLER_24_53
*747 FILLER_24_65
*748 FILLER_24_77
*749 FILLER_24_83
*750 FILLER_24_85
*751 FILLER_24_97
*752 FILLER_25_105
*753 FILLER_25_111
*754 FILLER_25_113
*755 FILLER_25_125
*756 FILLER_25_137
*757 FILLER_25_149
*758 FILLER_25_15
*759 FILLER_25_161
*760 FILLER_25_167
*761 FILLER_25_169
*762 FILLER_25_181
*763 FILLER_25_193
*764 FILLER_25_205
*765 FILLER_25_217
*766 FILLER_25_223
*767 FILLER_25_225
*768 FILLER_25_237
*769 FILLER_25_249
*770 FILLER_25_261
*771 FILLER_25_27
*772 FILLER_25_273
*773 FILLER_25_279
*774 FILLER_25_281
*775 FILLER_25_293
*776 FILLER_25_3
*777 FILLER_25_305
*778 FILLER_25_317
*779 FILLER_25_329
*780 FILLER_25_335
*781 FILLER_25_337
*782 FILLER_25_349
*783 FILLER_25_39
*784 FILLER_25_51
*785 FILLER_25_55
*786 FILLER_25_57
*787 FILLER_25_69
*788 FILLER_25_81
*789 FILLER_25_93
*790 FILLER_26_109
*791 FILLER_26_121
*792 FILLER_26_133
*793 FILLER_26_139
*794 FILLER_26_141
*795 FILLER_26_15
*796 FILLER_26_153
*797 FILLER_26_165
*798 FILLER_26_177
*799 FILLER_26_189
*800 FILLER_26_195
*801 FILLER_26_197
*802 FILLER_26_209
*803 FILLER_26_221
*804 FILLER_26_233
*805 FILLER_26_245
*806 FILLER_26_251
*807 FILLER_26_253
*808 FILLER_26_265
*809 FILLER_26_27
*810 FILLER_26_277
*811 FILLER_26_289
*812 FILLER_26_29
*813 FILLER_26_3
*814 FILLER_26_301
*815 FILLER_26_307
*816 FILLER_26_309
*817 FILLER_26_321
*818 FILLER_26_333
*819 FILLER_26_345
*820 FILLER_26_349
*821 FILLER_26_41
*822 FILLER_26_53
*823 FILLER_26_65
*824 FILLER_26_77
*825 FILLER_26_83
*826 FILLER_26_85
*827 FILLER_26_97
*828 FILLER_27_105
*829 FILLER_27_111
*830 FILLER_27_113
*831 FILLER_27_125
*832 FILLER_27_137
*833 FILLER_27_149
*834 FILLER_27_15
*835 FILLER_27_161
*836 FILLER_27_167
*837 FILLER_27_169
*838 FILLER_27_181
*839 FILLER_27_193
*840 FILLER_27_205
*841 FILLER_27_217
*842 FILLER_27_223
*843 FILLER_27_225
*844 FILLER_27_237
*845 FILLER_27_249
*846 FILLER_27_261
*847 FILLER_27_27
*848 FILLER_27_273
*849 FILLER_27_279
*850 FILLER_27_281
*851 FILLER_27_293
*852 FILLER_27_3
*853 FILLER_27_305
*854 FILLER_27_317
*855 FILLER_27_329
*856 FILLER_27_335
*857 FILLER_27_337
*858 FILLER_27_349
*859 FILLER_27_39
*860 FILLER_27_51
*861 FILLER_27_55
*862 FILLER_27_57
*863 FILLER_27_69
*864 FILLER_27_81
*865 FILLER_27_93
*866 FILLER_28_109
*867 FILLER_28_121
*868 FILLER_28_133
*869 FILLER_28_139
*870 FILLER_28_141
*871 FILLER_28_15
*872 FILLER_28_153
*873 FILLER_28_165
*874 FILLER_28_177
*875 FILLER_28_189
*876 FILLER_28_195
*877 FILLER_28_197
*878 FILLER_28_209
*879 FILLER_28_221
*880 FILLER_28_233
*881 FILLER_28_245
*882 FILLER_28_251
*883 FILLER_28_253
*884 FILLER_28_265
*885 FILLER_28_27
*886 FILLER_28_277
*887 FILLER_28_289
*888 FILLER_28_29
*889 FILLER_28_3
*890 FILLER_28_301
*891 FILLER_28_307
*892 FILLER_28_309
*893 FILLER_28_321
*894 FILLER_28_327
*895 FILLER_28_348
*896 FILLER_28_41
*897 FILLER_28_53
*898 FILLER_28_65
*899 FILLER_28_77
*900 FILLER_28_83
*901 FILLER_28_85
*902 FILLER_28_97
*903 FILLER_29_105
*904 FILLER_29_111
*905 FILLER_29_113
*906 FILLER_29_125
*907 FILLER_29_137
*908 FILLER_29_149
*909 FILLER_29_15
*910 FILLER_29_161
*911 FILLER_29_167
*912 FILLER_29_169
*913 FILLER_29_181
*914 FILLER_29_193
*915 FILLER_29_205
*916 FILLER_29_217
*917 FILLER_29_223
*918 FILLER_29_225
*919 FILLER_29_237
*920 FILLER_29_249
*921 FILLER_29_261
*922 FILLER_29_27
*923 FILLER_29_273
*924 FILLER_29_279
*925 FILLER_29_281
*926 FILLER_29_293
*927 FILLER_29_3
*928 FILLER_29_305
*929 FILLER_29_317
*930 FILLER_29_329
*931 FILLER_29_335
*932 FILLER_29_337
*933 FILLER_29_349
*934 FILLER_29_39
*935 FILLER_29_51
*936 FILLER_29_55
*937 FILLER_29_57
*938 FILLER_29_69
*939 FILLER_29_81
*940 FILLER_29_93
*941 FILLER_2_109
*942 FILLER_2_121
*943 FILLER_2_133
*944 FILLER_2_139
*945 FILLER_2_141
*946 FILLER_2_15
*947 FILLER_2_153
*948 FILLER_2_165
*949 FILLER_2_177
*950 FILLER_2_189
*951 FILLER_2_195
*952 FILLER_2_197
*953 FILLER_2_209
*954 FILLER_2_221
*955 FILLER_2_233
*956 FILLER_2_245
*957 FILLER_2_251
*958 FILLER_2_253
*959 FILLER_2_265
*960 FILLER_2_27
*961 FILLER_2_277
*962 FILLER_2_289
*963 FILLER_2_29
*964 FILLER_2_3
*965 FILLER_2_301
*966 FILLER_2_307
*967 FILLER_2_309
*968 FILLER_2_321
*969 FILLER_2_333
*970 FILLER_2_345
*971 FILLER_2_349
*972 FILLER_2_41
*973 FILLER_2_53
*974 FILLER_2_65
*975 FILLER_2_77
*976 FILLER_2_83
*977 FILLER_2_85
*978 FILLER_2_97
*979 FILLER_30_109
*980 FILLER_30_121
*981 FILLER_30_133
*982 FILLER_30_139
*983 FILLER_30_141
*984 FILLER_30_15
*985 FILLER_30_153
*986 FILLER_30_165
*987 FILLER_30_177
*988 FILLER_30_189
*989 FILLER_30_195
*990 FILLER_30_197
*991 FILLER_30_209
*992 FILLER_30_221
*993 FILLER_30_233
*994 FILLER_30_245
*995 FILLER_30_251
*996 FILLER_30_253
*997 FILLER_30_265
*998 FILLER_30_27
*999 FILLER_30_277
*1000 FILLER_30_289
*1001 FILLER_30_29
*1002 FILLER_30_3
*1003 FILLER_30_301
*1004 FILLER_30_307
*1005 FILLER_30_309
*1006 FILLER_30_321
*1007 FILLER_30_347
*1008 FILLER_30_41
*1009 FILLER_30_53
*1010 FILLER_30_65
*1011 FILLER_30_77
*1012 FILLER_30_83
*1013 FILLER_30_85
*1014 FILLER_30_97
*1015 FILLER_31_105
*1016 FILLER_31_111
*1017 FILLER_31_113
*1018 FILLER_31_125
*1019 FILLER_31_137
*1020 FILLER_31_149
*1021 FILLER_31_15
*1022 FILLER_31_161
*1023 FILLER_31_167
*1024 FILLER_31_169
*1025 FILLER_31_181
*1026 FILLER_31_193
*1027 FILLER_31_205
*1028 FILLER_31_217
*1029 FILLER_31_223
*1030 FILLER_31_225
*1031 FILLER_31_237
*1032 FILLER_31_249
*1033 FILLER_31_261
*1034 FILLER_31_27
*1035 FILLER_31_273
*1036 FILLER_31_279
*1037 FILLER_31_281
*1038 FILLER_31_293
*1039 FILLER_31_3
*1040 FILLER_31_305
*1041 FILLER_31_313
*1042 FILLER_31_334
*1043 FILLER_31_337
*1044 FILLER_31_349
*1045 FILLER_31_39
*1046 FILLER_31_51
*1047 FILLER_31_55
*1048 FILLER_31_57
*1049 FILLER_31_69
*1050 FILLER_31_81
*1051 FILLER_31_93
*1052 FILLER_32_109
*1053 FILLER_32_121
*1054 FILLER_32_133
*1055 FILLER_32_139
*1056 FILLER_32_141
*1057 FILLER_32_15
*1058 FILLER_32_153
*1059 FILLER_32_165
*1060 FILLER_32_177
*1061 FILLER_32_189
*1062 FILLER_32_195
*1063 FILLER_32_197
*1064 FILLER_32_209
*1065 FILLER_32_221
*1066 FILLER_32_233
*1067 FILLER_32_245
*1068 FILLER_32_251
*1069 FILLER_32_253
*1070 FILLER_32_265
*1071 FILLER_32_27
*1072 FILLER_32_29
*1073 FILLER_32_297
*1074 FILLER_32_3
*1075 FILLER_32_305
*1076 FILLER_32_309
*1077 FILLER_32_332
*1078 FILLER_32_344
*1079 FILLER_32_41
*1080 FILLER_32_53
*1081 FILLER_32_65
*1082 FILLER_32_77
*1083 FILLER_32_83
*1084 FILLER_32_85
*1085 FILLER_32_97
*1086 FILLER_33_105
*1087 FILLER_33_111
*1088 FILLER_33_113
*1089 FILLER_33_125
*1090 FILLER_33_137
*1091 FILLER_33_149
*1092 FILLER_33_15
*1093 FILLER_33_156
*1094 FILLER_33_169
*1095 FILLER_33_181
*1096 FILLER_33_193
*1097 FILLER_33_205
*1098 FILLER_33_217
*1099 FILLER_33_223
*1100 FILLER_33_225
*1101 FILLER_33_237
*1102 FILLER_33_249
*1103 FILLER_33_258
*1104 FILLER_33_262
*1105 FILLER_33_266
*1106 FILLER_33_27
*1107 FILLER_33_278
*1108 FILLER_33_281
*1109 FILLER_33_286
*1110 FILLER_33_298
*1111 FILLER_33_3
*1112 FILLER_33_320
*1113 FILLER_33_332
*1114 FILLER_33_337
*1115 FILLER_33_349
*1116 FILLER_33_39
*1117 FILLER_33_51
*1118 FILLER_33_55
*1119 FILLER_33_57
*1120 FILLER_33_69
*1121 FILLER_33_81
*1122 FILLER_33_93
*1123 FILLER_34_109
*1124 FILLER_34_121
*1125 FILLER_34_133
*1126 FILLER_34_139
*1127 FILLER_34_141
*1128 FILLER_34_15
*1129 FILLER_34_150
*1130 FILLER_34_159
*1131 FILLER_34_168
*1132 FILLER_34_180
*1133 FILLER_34_192
*1134 FILLER_34_197
*1135 FILLER_34_203
*1136 FILLER_34_211
*1137 FILLER_34_219
*1138 FILLER_34_231
*1139 FILLER_34_242
*1140 FILLER_34_249
*1141 FILLER_34_253
*1142 FILLER_34_262
*1143 FILLER_34_27
*1144 FILLER_34_271
*1145 FILLER_34_278
*1146 FILLER_34_29
*1147 FILLER_34_3
*1148 FILLER_34_306
*1149 FILLER_34_309
*1150 FILLER_34_321
*1151 FILLER_34_348
*1152 FILLER_34_41
*1153 FILLER_34_53
*1154 FILLER_34_65
*1155 FILLER_34_77
*1156 FILLER_34_83
*1157 FILLER_34_85
*1158 FILLER_34_97
*1159 FILLER_35_105
*1160 FILLER_35_111
*1161 FILLER_35_113
*1162 FILLER_35_125
*1163 FILLER_35_131
*1164 FILLER_35_139
*1165 FILLER_35_148
*1166 FILLER_35_15
*1167 FILLER_35_161
*1168 FILLER_35_167
*1169 FILLER_35_169
*1170 FILLER_35_176
*1171 FILLER_35_188
*1172 FILLER_35_196
*1173 FILLER_35_204
*1174 FILLER_35_21
*1175 FILLER_35_215
*1176 FILLER_35_222
*1177 FILLER_35_225
*1178 FILLER_35_236
*1179 FILLER_35_247
*1180 FILLER_35_258
*1181 FILLER_35_26
*1182 FILLER_35_262
*1183 FILLER_35_270
*1184 FILLER_35_278
*1185 FILLER_35_281
*1186 FILLER_35_293
*1187 FILLER_35_297
*1188 FILLER_35_3
*1189 FILLER_35_319
*1190 FILLER_35_334
*1191 FILLER_35_337
*1192 FILLER_35_349
*1193 FILLER_35_38
*1194 FILLER_35_50
*1195 FILLER_35_57
*1196 FILLER_35_69
*1197 FILLER_35_81
*1198 FILLER_35_93
*1199 FILLER_36_105
*1200 FILLER_36_109
*1201 FILLER_36_114
*1202 FILLER_36_122
*1203 FILLER_36_130
*1204 FILLER_36_138
*1205 FILLER_36_141
*1206 FILLER_36_15
*1207 FILLER_36_152
*1208 FILLER_36_165
*1209 FILLER_36_173
*1210 FILLER_36_181
*1211 FILLER_36_194
*1212 FILLER_36_197
*1213 FILLER_36_205
*1214 FILLER_36_21
*1215 FILLER_36_215
*1216 FILLER_36_223
*1217 FILLER_36_234
*1218 FILLER_36_245
*1219 FILLER_36_251
*1220 FILLER_36_253
*1221 FILLER_36_26
*1222 FILLER_36_260
*1223 FILLER_36_271
*1224 FILLER_36_278
*1225 FILLER_36_29
*1226 FILLER_36_3
*1227 FILLER_36_306
*1228 FILLER_36_309
*1229 FILLER_36_332
*1230 FILLER_36_339
*1231 FILLER_36_347
*1232 FILLER_36_35
*1233 FILLER_36_43
*1234 FILLER_36_51
*1235 FILLER_36_55
*1236 FILLER_36_60
*1237 FILLER_36_64
*1238 FILLER_36_69
*1239 FILLER_36_81
*1240 FILLER_36_85
*1241 FILLER_36_93
*1242 FILLER_37_109
*1243 FILLER_37_113
*1244 FILLER_37_121
*1245 FILLER_37_128
*1246 FILLER_37_132
*1247 FILLER_37_137
*1248 FILLER_37_141
*1249 FILLER_37_15
*1250 FILLER_37_152
*1251 FILLER_37_160
*1252 FILLER_37_169
*1253 FILLER_37_181
*1254 FILLER_37_189
*1255 FILLER_37_19
*1256 FILLER_37_194
*1257 FILLER_37_197
*1258 FILLER_37_202
*1259 FILLER_37_215
*1260 FILLER_37_222
*1261 FILLER_37_225
*1262 FILLER_37_231
*1263 FILLER_37_236
*1264 FILLER_37_24
*1265 FILLER_37_243
*1266 FILLER_37_250
*1267 FILLER_37_253
*1268 FILLER_37_260
*1269 FILLER_37_267
*1270 FILLER_37_274
*1271 FILLER_37_281
*1272 FILLER_37_286
*1273 FILLER_37_29
*1274 FILLER_37_298
*1275 FILLER_37_3
*1276 FILLER_37_306
*1277 FILLER_37_309
*1278 FILLER_37_331
*1279 FILLER_37_335
*1280 FILLER_37_337
*1281 FILLER_37_342
*1282 FILLER_37_41
*1283 FILLER_37_53
*1284 FILLER_37_57
*1285 FILLER_37_69
*1286 FILLER_37_81
*1287 FILLER_37_85
*1288 FILLER_37_97
*1289 FILLER_3_105
*1290 FILLER_3_111
*1291 FILLER_3_113
*1292 FILLER_3_125
*1293 FILLER_3_137
*1294 FILLER_3_149
*1295 FILLER_3_15
*1296 FILLER_3_161
*1297 FILLER_3_167
*1298 FILLER_3_169
*1299 FILLER_3_181
*1300 FILLER_3_193
*1301 FILLER_3_205
*1302 FILLER_3_217
*1303 FILLER_3_223
*1304 FILLER_3_225
*1305 FILLER_3_237
*1306 FILLER_3_249
*1307 FILLER_3_261
*1308 FILLER_3_27
*1309 FILLER_3_273
*1310 FILLER_3_279
*1311 FILLER_3_281
*1312 FILLER_3_293
*1313 FILLER_3_3
*1314 FILLER_3_305
*1315 FILLER_3_317
*1316 FILLER_3_329
*1317 FILLER_3_335
*1318 FILLER_3_337
*1319 FILLER_3_349
*1320 FILLER_3_39
*1321 FILLER_3_51
*1322 FILLER_3_55
*1323 FILLER_3_57
*1324 FILLER_3_69
*1325 FILLER_3_81
*1326 FILLER_3_93
*1327 FILLER_4_109
*1328 FILLER_4_121
*1329 FILLER_4_133
*1330 FILLER_4_139
*1331 FILLER_4_141
*1332 FILLER_4_15
*1333 FILLER_4_153
*1334 FILLER_4_165
*1335 FILLER_4_177
*1336 FILLER_4_189
*1337 FILLER_4_195
*1338 FILLER_4_197
*1339 FILLER_4_209
*1340 FILLER_4_221
*1341 FILLER_4_233
*1342 FILLER_4_245
*1343 FILLER_4_251
*1344 FILLER_4_253
*1345 FILLER_4_265
*1346 FILLER_4_27
*1347 FILLER_4_277
*1348 FILLER_4_289
*1349 FILLER_4_29
*1350 FILLER_4_3
*1351 FILLER_4_301
*1352 FILLER_4_307
*1353 FILLER_4_309
*1354 FILLER_4_321
*1355 FILLER_4_333
*1356 FILLER_4_345
*1357 FILLER_4_349
*1358 FILLER_4_41
*1359 FILLER_4_53
*1360 FILLER_4_65
*1361 FILLER_4_77
*1362 FILLER_4_83
*1363 FILLER_4_85
*1364 FILLER_4_97
*1365 FILLER_5_105
*1366 FILLER_5_111
*1367 FILLER_5_113
*1368 FILLER_5_125
*1369 FILLER_5_137
*1370 FILLER_5_149
*1371 FILLER_5_15
*1372 FILLER_5_161
*1373 FILLER_5_167
*1374 FILLER_5_169
*1375 FILLER_5_181
*1376 FILLER_5_193
*1377 FILLER_5_205
*1378 FILLER_5_217
*1379 FILLER_5_223
*1380 FILLER_5_225
*1381 FILLER_5_237
*1382 FILLER_5_249
*1383 FILLER_5_261
*1384 FILLER_5_27
*1385 FILLER_5_273
*1386 FILLER_5_279
*1387 FILLER_5_281
*1388 FILLER_5_293
*1389 FILLER_5_3
*1390 FILLER_5_305
*1391 FILLER_5_317
*1392 FILLER_5_329
*1393 FILLER_5_335
*1394 FILLER_5_337
*1395 FILLER_5_349
*1396 FILLER_5_39
*1397 FILLER_5_51
*1398 FILLER_5_55
*1399 FILLER_5_57
*1400 FILLER_5_69
*1401 FILLER_5_81
*1402 FILLER_5_93
*1403 FILLER_6_109
*1404 FILLER_6_121
*1405 FILLER_6_133
*1406 FILLER_6_139
*1407 FILLER_6_141
*1408 FILLER_6_15
*1409 FILLER_6_153
*1410 FILLER_6_165
*1411 FILLER_6_177
*1412 FILLER_6_189
*1413 FILLER_6_195
*1414 FILLER_6_197
*1415 FILLER_6_209
*1416 FILLER_6_221
*1417 FILLER_6_233
*1418 FILLER_6_245
*1419 FILLER_6_251
*1420 FILLER_6_253
*1421 FILLER_6_265
*1422 FILLER_6_27
*1423 FILLER_6_277
*1424 FILLER_6_289
*1425 FILLER_6_29
*1426 FILLER_6_3
*1427 FILLER_6_301
*1428 FILLER_6_307
*1429 FILLER_6_309
*1430 FILLER_6_321
*1431 FILLER_6_333
*1432 FILLER_6_345
*1433 FILLER_6_349
*1434 FILLER_6_41
*1435 FILLER_6_53
*1436 FILLER_6_65
*1437 FILLER_6_77
*1438 FILLER_6_83
*1439 FILLER_6_85
*1440 FILLER_6_97
*1441 FILLER_7_105
*1442 FILLER_7_111
*1443 FILLER_7_113
*1444 FILLER_7_125
*1445 FILLER_7_137
*1446 FILLER_7_149
*1447 FILLER_7_15
*1448 FILLER_7_161
*1449 FILLER_7_167
*1450 FILLER_7_169
*1451 FILLER_7_181
*1452 FILLER_7_193
*1453 FILLER_7_205
*1454 FILLER_7_217
*1455 FILLER_7_223
*1456 FILLER_7_225
*1457 FILLER_7_237
*1458 FILLER_7_249
*1459 FILLER_7_261
*1460 FILLER_7_27
*1461 FILLER_7_273
*1462 FILLER_7_279
*1463 FILLER_7_281
*1464 FILLER_7_293
*1465 FILLER_7_3
*1466 FILLER_7_305
*1467 FILLER_7_317
*1468 FILLER_7_329
*1469 FILLER_7_335
*1470 FILLER_7_337
*1471 FILLER_7_349
*1472 FILLER_7_39
*1473 FILLER_7_51
*1474 FILLER_7_55
*1475 FILLER_7_57
*1476 FILLER_7_69
*1477 FILLER_7_81
*1478 FILLER_7_93
*1479 FILLER_8_109
*1480 FILLER_8_121
*1481 FILLER_8_133
*1482 FILLER_8_139
*1483 FILLER_8_141
*1484 FILLER_8_15
*1485 FILLER_8_153
*1486 FILLER_8_165
*1487 FILLER_8_177
*1488 FILLER_8_189
*1489 FILLER_8_195
*1490 FILLER_8_197
*1491 FILLER_8_209
*1492 FILLER_8_221
*1493 FILLER_8_233
*1494 FILLER_8_245
*1495 FILLER_8_251
*1496 FILLER_8_253
*1497 FILLER_8_265
*1498 FILLER_8_27
*1499 FILLER_8_277
*1500 FILLER_8_289
*1501 FILLER_8_29
*1502 FILLER_8_3
*1503 FILLER_8_301
*1504 FILLER_8_307
*1505 FILLER_8_309
*1506 FILLER_8_321
*1507 FILLER_8_333
*1508 FILLER_8_345
*1509 FILLER_8_349
*1510 FILLER_8_41
*1511 FILLER_8_53
*1512 FILLER_8_65
*1513 FILLER_8_77
*1514 FILLER_8_83
*1515 FILLER_8_85
*1516 FILLER_8_97
*1517 FILLER_9_105
*1518 FILLER_9_111
*1519 FILLER_9_113
*1520 FILLER_9_125
*1521 FILLER_9_137
*1522 FILLER_9_149
*1523 FILLER_9_15
*1524 FILLER_9_161
*1525 FILLER_9_167
*1526 FILLER_9_169
*1527 FILLER_9_181
*1528 FILLER_9_193
*1529 FILLER_9_205
*1530 FILLER_9_217
*1531 FILLER_9_223
*1532 FILLER_9_225
*1533 FILLER_9_237
*1534 FILLER_9_249
*1535 FILLER_9_261
*1536 FILLER_9_27
*1537 FILLER_9_273
*1538 FILLER_9_279
*1539 FILLER_9_281
*1540 FILLER_9_293
*1541 FILLER_9_3
*1542 FILLER_9_305
*1543 FILLER_9_317
*1544 FILLER_9_329
*1545 FILLER_9_335
*1546 FILLER_9_337
*1547 FILLER_9_349
*1548 FILLER_9_39
*1549 FILLER_9_51
*1550 FILLER_9_55
*1551 FILLER_9_57
*1552 FILLER_9_69
*1553 FILLER_9_81
*1554 FILLER_9_93
*1555 PHY_0
*1556 PHY_1
*1557 PHY_10
*1558 PHY_11
*1559 PHY_12
*1560 PHY_13
*1561 PHY_14
*1562 PHY_15
*1563 PHY_16
*1564 PHY_17
*1565 PHY_18
*1566 PHY_19
*1567 PHY_2
*1568 PHY_20
*1569 PHY_21
*1570 PHY_22
*1571 PHY_23
*1572 PHY_24
*1573 PHY_25
*1574 PHY_26
*1575 PHY_27
*1576 PHY_28
*1577 PHY_29
*1578 PHY_3
*1579 PHY_30
*1580 PHY_31
*1581 PHY_32
*1582 PHY_33
*1583 PHY_34
*1584 PHY_35
*1585 PHY_36
*1586 PHY_37
*1587 PHY_38
*1588 PHY_39
*1589 PHY_4
*1590 PHY_40
*1591 PHY_41
*1592 PHY_42
*1593 PHY_43
*1594 PHY_44
*1595 PHY_45
*1596 PHY_46
*1597 PHY_47
*1598 PHY_48
*1599 PHY_49
*1600 PHY_5
*1601 PHY_50
*1602 PHY_51
*1603 PHY_52
*1604 PHY_53
*1605 PHY_54
*1606 PHY_55
*1607 PHY_56
*1608 PHY_57
*1609 PHY_58
*1610 PHY_59
*1611 PHY_6
*1612 PHY_60
*1613 PHY_61
*1614 PHY_62
*1615 PHY_63
*1616 PHY_64
*1617 PHY_65
*1618 PHY_66
*1619 PHY_67
*1620 PHY_68
*1621 PHY_69
*1622 PHY_7
*1623 PHY_70
*1624 PHY_71
*1625 PHY_72
*1626 PHY_73
*1627 PHY_74
*1628 PHY_75
*1629 PHY_8
*1630 PHY_9
*1631 TAP_100
*1632 TAP_101
*1633 TAP_102
*1634 TAP_103
*1635 TAP_104
*1636 TAP_105
*1637 TAP_106
*1638 TAP_107
*1639 TAP_108
*1640 TAP_109
*1641 TAP_110
*1642 TAP_111
*1643 TAP_112
*1644 TAP_113
*1645 TAP_114