*SPEF "ieee 1481-1999"
*DESIGN "tt_um_factory_test"
*DATE "11:11:11 Fri 11 11, 1111"
*VENDOR "OpenRCX"
*PROGRAM "Parallel Extraction"
*VERSION "1.0"
*DESIGN_FLOW "NAME_SCOPE LOCAL" "PIN_CAP NONE"
*DIVIDER /
*DELIMITER :
*BUS_DELIMITER []
*T_UNIT 1 NS
*C_UNIT 1 PF
*R_UNIT 1 OHM
*L_UNIT 1 HENRY

*NAME_MAP
*3 clk
*4 ena
*5 rst_n
*6 ui_in[0]
*7 ui_in[1]
*8 ui_in[2]
*9 ui_in[3]
*10 ui_in[4]
*11 ui_in[5]
*12 ui_in[6]
*13 ui_in[7]
*14 uio_in[0]
*15 uio_in[1]
*16 uio_in[2]
*17 uio_in[3]
*18 uio_in[4]
*19 uio_in[5]
*20 uio_in[6]
*21 uio_in[7]
*22 uio_oe[0]
*23 uio_oe[1]
*24 uio_oe[2]
*25 uio_oe[3]
*26 uio_oe[4]
*27 uio_oe[5]
*28 uio_oe[6]
*29 uio_oe[7]
*30 uio_out[0]
*31 uio_out[1]
*32 uio_out[2]
*33 uio_out[3]
*34 uio_out[4]
*35 uio_out[5]
*36 uio_out[6]
*37 uio_out[7]
*38 uo_out[0]
*39 uo_out[1]
*40 uo_out[2]
*41 uo_out[3]
*42 uo_out[4]
*43 uo_out[5]
*44 uo_out[6]
*45 uo_out[7]
*46 _000_
*47 _001_
*48 _002_
*49 _003_
*50 _004_
*51 _005_
*52 _006_
*53 _007_
*54 _008_
*55 _009_
*56 _010_
*57 _011_
*58 _012_
*59 _013_
*60 _014_
*61 _015_
*62 _016_
*63 _017_
*64 _018_
*65 _019_
*66 _020_
*67 _021_
*68 _022_
*69 _023_
*70 _024_
*71 _025_
*72 _026_
*73 _027_
*74 _028_
*75 _029_
*76 _030_
*77 _031_
*78 _032_
*79 _033_
*80 clknet_0_clk
*81 clknet_1_0__leaf_clk
*82 clknet_1_1__leaf_clk
*83 cnt\[0\]
*84 cnt\[1\]
*85 cnt\[2\]
*86 cnt\[3\]
*87 cnt\[4\]
*88 cnt\[5\]
*89 cnt\[6\]
*90 cnt\[7\]
*91 net1
*92 net10
*93 net11
*94 net12
*95 net13
*96 net14
*97 net15
*98 net16
*99 net17
*100 net18
*101 net19
*102 net2
*103 net20
*104 net21
*105 net22
*106 net3
*107 net4
*108 net5
*109 net6
*110 net7
*111 net8
*112 net9
*113 rst_n_i
*114 FILLER_0_0_109
*115 FILLER_0_0_113
*116 FILLER_0_0_125
*117 FILLER_0_0_137
*118 FILLER_0_0_141
*119 FILLER_0_0_15
*120 FILLER_0_0_153
*121 FILLER_0_0_165
*122 FILLER_0_0_169
*123 FILLER_0_0_181
*124 FILLER_0_0_193
*125 FILLER_0_0_197
*126 FILLER_0_0_209
*127 FILLER_0_0_221
*128 FILLER_0_0_225
*129 FILLER_0_0_237
*130 FILLER_0_0_249
*131 FILLER_0_0_253
*132 FILLER_0_0_265
*133 FILLER_0_0_27
*134 FILLER_0_0_277
*135 FILLER_0_0_281
*136 FILLER_0_0_29
*137 FILLER_0_0_293
*138 FILLER_0_0_3
*139 FILLER_0_0_305
*140 FILLER_0_0_309
*141 FILLER_0_0_321
*142 FILLER_0_0_333
*143 FILLER_0_0_337
*144 FILLER_0_0_349
*145 FILLER_0_0_41
*146 FILLER_0_0_53
*147 FILLER_0_0_57
*148 FILLER_0_0_69
*149 FILLER_0_0_81
*150 FILLER_0_0_85
*151 FILLER_0_0_97
*152 FILLER_0_10_109
*153 FILLER_0_10_121
*154 FILLER_0_10_133
*155 FILLER_0_10_139
*156 FILLER_0_10_141
*157 FILLER_0_10_15
*158 FILLER_0_10_153
*159 FILLER_0_10_165
*160 FILLER_0_10_177
*161 FILLER_0_10_189
*162 FILLER_0_10_195
*163 FILLER_0_10_197
*164 FILLER_0_10_209
*165 FILLER_0_10_221
*166 FILLER_0_10_233
*167 FILLER_0_10_245
*168 FILLER_0_10_251
*169 FILLER_0_10_253
*170 FILLER_0_10_265
*171 FILLER_0_10_27
*172 FILLER_0_10_277
*173 FILLER_0_10_289
*174 FILLER_0_10_29
*175 FILLER_0_10_3
*176 FILLER_0_10_301
*177 FILLER_0_10_307
*178 FILLER_0_10_309
*179 FILLER_0_10_321
*180 FILLER_0_10_333
*181 FILLER_0_10_345
*182 FILLER_0_10_349
*183 FILLER_0_10_41
*184 FILLER_0_10_53
*185 FILLER_0_10_65
*186 FILLER_0_10_77
*187 FILLER_0_10_83
*188 FILLER_0_10_85
*189 FILLER_0_10_97
*190 FILLER_0_11_105
*191 FILLER_0_11_111
*192 FILLER_0_11_113
*193 FILLER_0_11_125
*194 FILLER_0_11_137
*195 FILLER_0_11_149
*196 FILLER_0_11_15
*197 FILLER_0_11_161
*198 FILLER_0_11_167
*199 FILLER_0_11_169
*200 FILLER_0_11_181
*201 FILLER_0_11_193
*202 FILLER_0_11_205
*203 FILLER_0_11_217
*204 FILLER_0_11_223
*205 FILLER_0_11_225
*206 FILLER_0_11_237
*207 FILLER_0_11_249
*208 FILLER_0_11_261
*209 FILLER_0_11_27
*210 FILLER_0_11_273
*211 FILLER_0_11_279
*212 FILLER_0_11_281
*213 FILLER_0_11_293
*214 FILLER_0_11_3
*215 FILLER_0_11_305
*216 FILLER_0_11_317
*217 FILLER_0_11_329
*218 FILLER_0_11_335
*219 FILLER_0_11_337
*220 FILLER_0_11_349
*221 FILLER_0_11_39
*222 FILLER_0_11_51
*223 FILLER_0_11_55
*224 FILLER_0_11_57
*225 FILLER_0_11_69
*226 FILLER_0_11_81
*227 FILLER_0_11_93
*228 FILLER_0_12_109
*229 FILLER_0_12_121
*230 FILLER_0_12_133
*231 FILLER_0_12_139
*232 FILLER_0_12_141
*233 FILLER_0_12_15
*234 FILLER_0_12_153
*235 FILLER_0_12_165
*236 FILLER_0_12_177
*237 FILLER_0_12_189
*238 FILLER_0_12_195
*239 FILLER_0_12_197
*240 FILLER_0_12_209
*241 FILLER_0_12_221
*242 FILLER_0_12_233
*243 FILLER_0_12_245
*244 FILLER_0_12_251
*245 FILLER_0_12_253
*246 FILLER_0_12_265
*247 FILLER_0_12_27
*248 FILLER_0_12_277
*249 FILLER_0_12_289
*250 FILLER_0_12_29
*251 FILLER_0_12_3
*252 FILLER_0_12_301
*253 FILLER_0_12_307
*254 FILLER_0_12_309
*255 FILLER_0_12_321
*256 FILLER_0_12_333
*257 FILLER_0_12_345
*258 FILLER_0_12_349
*259 FILLER_0_12_41
*260 FILLER_0_12_53
*261 FILLER_0_12_65
*262 FILLER_0_12_77
*263 FILLER_0_12_83
*264 FILLER_0_12_85
*265 FILLER_0_12_97
*266 FILLER_0_13_105
*267 FILLER_0_13_111
*268 FILLER_0_13_113
*269 FILLER_0_13_125
*270 FILLER_0_13_137
*271 FILLER_0_13_149
*272 FILLER_0_13_15
*273 FILLER_0_13_161
*274 FILLER_0_13_167
*275 FILLER_0_13_169
*276 FILLER_0_13_181
*277 FILLER_0_13_193
*278 FILLER_0_13_205
*279 FILLER_0_13_217
*280 FILLER_0_13_223
*281 FILLER_0_13_225
*282 FILLER_0_13_237
*283 FILLER_0_13_249
*284 FILLER_0_13_261
*285 FILLER_0_13_27
*286 FILLER_0_13_273
*287 FILLER_0_13_279
*288 FILLER_0_13_281
*289 FILLER_0_13_293
*290 FILLER_0_13_3
*291 FILLER_0_13_305
*292 FILLER_0_13_317
*293 FILLER_0_13_329
*294 FILLER_0_13_335
*295 FILLER_0_13_337
*296 FILLER_0_13_349
*297 FILLER_0_13_39
*298 FILLER_0_13_51
*299 FILLER_0_13_55
*300 FILLER_0_13_57
*301 FILLER_0_13_69
*302 FILLER_0_13_81
*303 FILLER_0_13_93
*304 FILLER_0_14_109
*305 FILLER_0_14_121
*306 FILLER_0_14_133
*307 FILLER_0_14_139
*308 FILLER_0_14_141
*309 FILLER_0_14_15
*310 FILLER_0_14_153
*311 FILLER_0_14_165
*312 FILLER_0_14_177
*313 FILLER_0_14_189
*314 FILLER_0_14_195
*315 FILLER_0_14_197
*316 FILLER_0_14_209
*317 FILLER_0_14_221
*318 FILLER_0_14_233
*319 FILLER_0_14_245
*320 FILLER_0_14_251
*321 FILLER_0_14_253
*322 FILLER_0_14_265
*323 FILLER_0_14_27
*324 FILLER_0_14_277
*325 FILLER_0_14_289
*326 FILLER_0_14_29
*327 FILLER_0_14_3
*328 FILLER_0_14_301
*329 FILLER_0_14_307
*330 FILLER_0_14_309
*331 FILLER_0_14_321
*332 FILLER_0_14_333
*333 FILLER_0_14_345
*334 FILLER_0_14_349
*335 FILLER_0_14_41
*336 FILLER_0_14_53
*337 FILLER_0_14_65
*338 FILLER_0_14_77
*339 FILLER_0_14_83
*340 FILLER_0_14_85
*341 FILLER_0_14_97
*342 FILLER_0_15_105
*343 FILLER_0_15_111
*344 FILLER_0_15_113
*345 FILLER_0_15_125
*346 FILLER_0_15_137
*347 FILLER_0_15_149
*348 FILLER_0_15_15
*349 FILLER_0_15_161
*350 FILLER_0_15_167
*351 FILLER_0_15_169
*352 FILLER_0_15_181
*353 FILLER_0_15_193
*354 FILLER_0_15_205
*355 FILLER_0_15_217
*356 FILLER_0_15_223
*357 FILLER_0_15_225
*358 FILLER_0_15_237
*359 FILLER_0_15_249
*360 FILLER_0_15_261
*361 FILLER_0_15_27
*362 FILLER_0_15_273
*363 FILLER_0_15_279
*364 FILLER_0_15_281
*365 FILLER_0_15_293
*366 FILLER_0_15_3
*367 FILLER_0_15_305
*368 FILLER_0_15_317
*369 FILLER_0_15_329
*370 FILLER_0_15_335
*371 FILLER_0_15_337
*372 FILLER_0_15_349
*373 FILLER_0_15_39
*374 FILLER_0_15_51
*375 FILLER_0_15_55
*376 FILLER_0_15_57
*377 FILLER_0_15_69
*378 FILLER_0_15_81
*379 FILLER_0_15_93
*380 FILLER_0_16_109
*381 FILLER_0_16_121
*382 FILLER_0_16_133
*383 FILLER_0_16_139
*384 FILLER_0_16_141
*385 FILLER_0_16_15
*386 FILLER_0_16_153
*387 FILLER_0_16_165
*388 FILLER_0_16_177
*389 FILLER_0_16_189
*390 FILLER_0_16_195
*391 FILLER_0_16_197
*392 FILLER_0_16_209
*393 FILLER_0_16_221
*394 FILLER_0_16_233
*395 FILLER_0_16_245
*396 FILLER_0_16_251
*397 FILLER_0_16_253
*398 FILLER_0_16_265
*399 FILLER_0_16_27
*400 FILLER_0_16_277
*401 FILLER_0_16_289
*402 FILLER_0_16_29
*403 FILLER_0_16_3
*404 FILLER_0_16_301
*405 FILLER_0_16_307
*406 FILLER_0_16_309
*407 FILLER_0_16_321
*408 FILLER_0_16_333
*409 FILLER_0_16_345
*410 FILLER_0_16_349
*411 FILLER_0_16_41
*412 FILLER_0_16_53
*413 FILLER_0_16_65
*414 FILLER_0_16_77
*415 FILLER_0_16_83
*416 FILLER_0_16_85
*417 FILLER_0_16_97
*418 FILLER_0_17_105
*419 FILLER_0_17_111
*420 FILLER_0_17_113
*421 FILLER_0_17_125
*422 FILLER_0_17_137
*423 FILLER_0_17_149
*424 FILLER_0_17_15
*425 FILLER_0_17_161
*426 FILLER_0_17_167
*427 FILLER_0_17_169
*428 FILLER_0_17_181
*429 FILLER_0_17_193
*430 FILLER_0_17_205
*431 FILLER_0_17_217
*432 FILLER_0_17_223
*433 FILLER_0_17_225
*434 FILLER_0_17_237
*435 FILLER_0_17_249
*436 FILLER_0_17_261
*437 FILLER_0_17_27
*438 FILLER_0_17_273
*439 FILLER_0_17_279
*440 FILLER_0_17_281
*441 FILLER_0_17_293
*442 FILLER_0_17_3
*443 FILLER_0_17_305
*444 FILLER_0_17_317
*445 FILLER_0_17_329
*446 FILLER_0_17_335
*447 FILLER_0_17_337
*448 FILLER_0_17_349
*449 FILLER_0_17_39
*450 FILLER_0_17_51
*451 FILLER_0_17_55
*452 FILLER_0_17_57
*453 FILLER_0_17_69
*454 FILLER_0_17_81
*455 FILLER_0_17_93
*456 FILLER_0_18_109
*457 FILLER_0_18_121
*458 FILLER_0_18_133
*459 FILLER_0_18_139
*460 FILLER_0_18_141
*461 FILLER_0_18_15
*462 FILLER_0_18_153
*463 FILLER_0_18_165
*464 FILLER_0_18_177
*465 FILLER_0_18_189
*466 FILLER_0_18_195
*467 FILLER_0_18_197
*468 FILLER_0_18_209
*469 FILLER_0_18_221
*470 FILLER_0_18_233
*471 FILLER_0_18_245
*472 FILLER_0_18_251
*473 FILLER_0_18_253
*474 FILLER_0_18_265
*475 FILLER_0_18_27
*476 FILLER_0_18_277
*477 FILLER_0_18_289
*478 FILLER_0_18_29
*479 FILLER_0_18_3
*480 FILLER_0_18_301
*481 FILLER_0_18_307
*482 FILLER_0_18_309
*483 FILLER_0_18_321
*484 FILLER_0_18_333
*485 FILLER_0_18_345
*486 FILLER_0_18_349
*487 FILLER_0_18_41
*488 FILLER_0_18_53
*489 FILLER_0_18_65
*490 FILLER_0_18_77
*491 FILLER_0_18_83
*492 FILLER_0_18_85
*493 FILLER_0_18_97
*494 FILLER_0_19_105
*495 FILLER_0_19_111
*496 FILLER_0_19_113
*497 FILLER_0_19_125
*498 FILLER_0_19_137
*499 FILLER_0_19_149
*500 FILLER_0_19_15
*501 FILLER_0_19_161
*502 FILLER_0_19_167
*503 FILLER_0_19_169
*504 FILLER_0_19_181
*505 FILLER_0_19_193
*506 FILLER_0_19_205
*507 FILLER_0_19_217
*508 FILLER_0_19_223
*509 FILLER_0_19_225
*510 FILLER_0_19_237
*511 FILLER_0_19_249
*512 FILLER_0_19_261
*513 FILLER_0_19_27
*514 FILLER_0_19_273
*515 FILLER_0_19_279
*516 FILLER_0_19_281
*517 FILLER_0_19_293
*518 FILLER_0_19_3
*519 FILLER_0_19_305
*520 FILLER_0_19_317
*521 FILLER_0_19_329
*522 FILLER_0_19_335
*523 FILLER_0_19_337
*524 FILLER_0_19_349
*525 FILLER_0_19_39
*526 FILLER_0_19_51
*527 FILLER_0_19_55
*528 FILLER_0_19_57
*529 FILLER_0_19_69
*530 FILLER_0_19_81
*531 FILLER_0_19_93
*532 FILLER_0_1_105
*533 FILLER_0_1_111
*534 FILLER_0_1_113
*535 FILLER_0_1_125
*536 FILLER_0_1_137
*537 FILLER_0_1_149
*538 FILLER_0_1_15
*539 FILLER_0_1_161
*540 FILLER_0_1_167
*541 FILLER_0_1_169
*542 FILLER_0_1_181
*543 FILLER_0_1_193
*544 FILLER_0_1_205
*545 FILLER_0_1_217
*546 FILLER_0_1_223
*547 FILLER_0_1_225
*548 FILLER_0_1_237
*549 FILLER_0_1_249
*550 FILLER_0_1_261
*551 FILLER_0_1_27
*552 FILLER_0_1_273
*553 FILLER_0_1_279
*554 FILLER_0_1_281
*555 FILLER_0_1_293
*556 FILLER_0_1_3
*557 FILLER_0_1_305
*558 FILLER_0_1_317
*559 FILLER_0_1_329
*560 FILLER_0_1_335
*561 FILLER_0_1_337
*562 FILLER_0_1_349
*563 FILLER_0_1_39
*564 FILLER_0_1_51
*565 FILLER_0_1_55
*566 FILLER_0_1_57
*567 FILLER_0_1_69
*568 FILLER_0_1_81
*569 FILLER_0_1_93
*570 FILLER_0_20_109
*571 FILLER_0_20_121
*572 FILLER_0_20_133
*573 FILLER_0_20_139
*574 FILLER_0_20_141
*575 FILLER_0_20_15
*576 FILLER_0_20_153
*577 FILLER_0_20_165
*578 FILLER_0_20_177
*579 FILLER_0_20_189
*580 FILLER_0_20_195
*581 FILLER_0_20_197
*582 FILLER_0_20_209
*583 FILLER_0_20_221
*584 FILLER_0_20_233
*585 FILLER_0_20_245
*586 FILLER_0_20_251
*587 FILLER_0_20_253
*588 FILLER_0_20_265
*589 FILLER_0_20_27
*590 FILLER_0_20_277
*591 FILLER_0_20_289
*592 FILLER_0_20_29
*593 FILLER_0_20_3
*594 FILLER_0_20_301
*595 FILLER_0_20_307
*596 FILLER_0_20_309
*597 FILLER_0_20_321
*598 FILLER_0_20_333
*599 FILLER_0_20_345
*600 FILLER_0_20_349
*601 FILLER_0_20_41
*602 FILLER_0_20_53
*603 FILLER_0_20_65
*604 FILLER_0_20_77
*605 FILLER_0_20_83
*606 FILLER_0_20_85
*607 FILLER_0_20_97
*608 FILLER_0_21_105
*609 FILLER_0_21_111
*610 FILLER_0_21_113
*611 FILLER_0_21_125
*612 FILLER_0_21_137
*613 FILLER_0_21_149
*614 FILLER_0_21_15
*615 FILLER_0_21_161
*616 FILLER_0_21_167
*617 FILLER_0_21_169
*618 FILLER_0_21_181
*619 FILLER_0_21_193
*620 FILLER_0_21_205
*621 FILLER_0_21_217
*622 FILLER_0_21_223
*623 FILLER_0_21_225
*624 FILLER_0_21_237
*625 FILLER_0_21_249
*626 FILLER_0_21_261
*627 FILLER_0_21_27
*628 FILLER_0_21_273
*629 FILLER_0_21_279
*630 FILLER_0_21_281
*631 FILLER_0_21_293
*632 FILLER_0_21_3
*633 FILLER_0_21_305
*634 FILLER_0_21_317
*635 FILLER_0_21_329
*636 FILLER_0_21_335
*637 FILLER_0_21_337
*638 FILLER_0_21_349
*639 FILLER_0_21_39
*640 FILLER_0_21_51
*641 FILLER_0_21_55
*642 FILLER_0_21_57
*643 FILLER_0_21_69
*644 FILLER_0_21_81
*645 FILLER_0_21_93
*646 FILLER_0_22_109
*647 FILLER_0_22_121
*648 FILLER_0_22_133
*649 FILLER_0_22_139
*650 FILLER_0_22_141
*651 FILLER_0_22_15
*652 FILLER_0_22_153
*653 FILLER_0_22_165
*654 FILLER_0_22_177
*655 FILLER_0_22_189
*656 FILLER_0_22_195
*657 FILLER_0_22_197
*658 FILLER_0_22_209
*659 FILLER_0_22_221
*660 FILLER_0_22_233
*661 FILLER_0_22_245
*662 FILLER_0_22_251
*663 FILLER_0_22_253
*664 FILLER_0_22_265
*665 FILLER_0_22_27
*666 FILLER_0_22_277
*667 FILLER_0_22_289
*668 FILLER_0_22_29
*669 FILLER_0_22_3
*670 FILLER_0_22_301
*671 FILLER_0_22_307
*672 FILLER_0_22_309
*673 FILLER_0_22_321
*674 FILLER_0_22_333
*675 FILLER_0_22_345
*676 FILLER_0_22_349
*677 FILLER_0_22_41
*678 FILLER_0_22_53
*679 FILLER_0_22_65
*680 FILLER_0_22_77
*681 FILLER_0_22_83
*682 FILLER_0_22_85
*683 FILLER_0_22_97
*684 FILLER_0_23_105
*685 FILLER_0_23_111
*686 FILLER_0_23_113
*687 FILLER_0_23_125
*688 FILLER_0_23_137
*689 FILLER_0_23_149
*690 FILLER_0_23_15
*691 FILLER_0_23_161
*692 FILLER_0_23_167
*693 FILLER_0_23_169
*694 FILLER_0_23_181
*695 FILLER_0_23_193
*696 FILLER_0_23_205
*697 FILLER_0_23_217
*698 FILLER_0_23_223
*699 FILLER_0_23_225
*700 FILLER_0_23_237
*701 FILLER_0_23_249
*702 FILLER_0_23_261
*703 FILLER_0_23_27
*704 FILLER_0_23_273
*705 FILLER_0_23_279
*706 FILLER_0_23_281
*707 FILLER_0_23_293
*708 FILLER_0_23_3
*709 FILLER_0_23_305
*710 FILLER_0_23_317
*711 FILLER_0_23_329
*712 FILLER_0_23_335
*713 FILLER_0_23_337
*714 FILLER_0_23_349
*715 FILLER_0_23_39
*716 FILLER_0_23_51
*717 FILLER_0_23_55
*718 FILLER_0_23_57
*719 FILLER_0_23_69
*720 FILLER_0_23_81
*721 FILLER_0_23_93
*722 FILLER_0_24_109
*723 FILLER_0_24_121
*724 FILLER_0_24_133
*725 FILLER_0_24_139
*726 FILLER_0_24_141
*727 FILLER_0_24_15
*728 FILLER_0_24_153
*729 FILLER_0_24_165
*730 FILLER_0_24_177
*731 FILLER_0_24_189
*732 FILLER_0_24_195
*733 FILLER_0_24_197
*734 FILLER_0_24_209
*735 FILLER_0_24_221
*736 FILLER_0_24_233
*737 FILLER_0_24_245
*738 FILLER_0_24_251
*739 FILLER_0_24_253
*740 FILLER_0_24_265
*741 FILLER_0_24_27
*742 FILLER_0_24_277
*743 FILLER_0_24_289
*744 FILLER_0_24_29
*745 FILLER_0_24_3
*746 FILLER_0_24_301
*747 FILLER_0_24_307
*748 FILLER_0_24_309
*749 FILLER_0_24_321
*750 FILLER_0_24_333
*751 FILLER_0_24_345
*752 FILLER_0_24_349
*753 FILLER_0_24_41
*754 FILLER_0_24_53
*755 FILLER_0_24_65
*756 FILLER_0_24_77
*757 FILLER_0_24_83
*758 FILLER_0_24_85
*759 FILLER_0_24_97
*760 FILLER_0_25_105
*761 FILLER_0_25_111
*762 FILLER_0_25_113
*763 FILLER_0_25_125
*764 FILLER_0_25_137
*765 FILLER_0_25_149
*766 FILLER_0_25_15
*767 FILLER_0_25_161
*768 FILLER_0_25_167
*769 FILLER_0_25_169
*770 FILLER_0_25_181
*771 FILLER_0_25_193
*772 FILLER_0_25_205
*773 FILLER_0_25_217
*774 FILLER_0_25_223
*775 FILLER_0_25_225
*776 FILLER_0_25_237
*777 FILLER_0_25_249
*778 FILLER_0_25_261
*779 FILLER_0_25_27
*780 FILLER_0_25_273
*781 FILLER_0_25_279
*782 FILLER_0_25_281
*783 FILLER_0_25_293
*784 FILLER_0_25_3
*785 FILLER_0_25_305
*786 FILLER_0_25_317
*787 FILLER_0_25_329
*788 FILLER_0_25_335
*789 FILLER_0_25_337
*790 FILLER_0_25_349
*791 FILLER_0_25_39
*792 FILLER_0_25_51
*793 FILLER_0_25_55
*794 FILLER_0_25_57
*795 FILLER_0_25_69
*796 FILLER_0_25_81
*797 FILLER_0_25_93
*798 FILLER_0_26_109
*799 FILLER_0_26_121
*800 FILLER_0_26_133
*801 FILLER_0_26_139
*802 FILLER_0_26_141
*803 FILLER_0_26_15
*804 FILLER_0_26_153
*805 FILLER_0_26_165
*806 FILLER_0_26_177
*807 FILLER_0_26_189
*808 FILLER_0_26_195
*809 FILLER_0_26_197
*810 FILLER_0_26_209
*811 FILLER_0_26_221
*812 FILLER_0_26_233
*813 FILLER_0_26_245
*814 FILLER_0_26_251
*815 FILLER_0_26_253
*816 FILLER_0_26_265
*817 FILLER_0_26_27
*818 FILLER_0_26_277
*819 FILLER_0_26_289
*820 FILLER_0_26_29
*821 FILLER_0_26_3
*822 FILLER_0_26_301
*823 FILLER_0_26_307
*824 FILLER_0_26_309
*825 FILLER_0_26_321
*826 FILLER_0_26_333
*827 FILLER_0_26_345
*828 FILLER_0_26_349
*829 FILLER_0_26_41
*830 FILLER_0_26_53
*831 FILLER_0_26_65
*832 FILLER_0_26_77
*833 FILLER_0_26_83
*834 FILLER_0_26_85
*835 FILLER_0_26_97
*836 FILLER_0_27_105
*837 FILLER_0_27_111
*838 FILLER_0_27_113
*839 FILLER_0_27_125
*840 FILLER_0_27_137
*841 FILLER_0_27_149
*842 FILLER_0_27_15
*843 FILLER_0_27_161
*844 FILLER_0_27_167
*845 FILLER_0_27_169
*846 FILLER_0_27_181
*847 FILLER_0_27_193
*848 FILLER_0_27_205
*849 FILLER_0_27_217
*850 FILLER_0_27_223
*851 FILLER_0_27_225
*852 FILLER_0_27_237
*853 FILLER_0_27_249
*854 FILLER_0_27_261
*855 FILLER_0_27_27
*856 FILLER_0_27_273
*857 FILLER_0_27_279
*858 FILLER_0_27_281
*859 FILLER_0_27_293
*860 FILLER_0_27_3
*861 FILLER_0_27_305
*862 FILLER_0_27_317
*863 FILLER_0_27_329
*864 FILLER_0_27_335
*865 FILLER_0_27_337
*866 FILLER_0_27_349
*867 FILLER_0_27_39
*868 FILLER_0_27_51
*869 FILLER_0_27_55
*870 FILLER_0_27_57
*871 FILLER_0_27_69
*872 FILLER_0_27_81
*873 FILLER_0_27_93
*874 FILLER_0_28_109
*875 FILLER_0_28_121
*876 FILLER_0_28_133
*877 FILLER_0_28_139
*878 FILLER_0_28_141
*879 FILLER_0_28_15
*880 FILLER_0_28_153
*881 FILLER_0_28_165
*882 FILLER_0_28_177
*883 FILLER_0_28_189
*884 FILLER_0_28_195
*885 FILLER_0_28_197
*886 FILLER_0_28_209
*887 FILLER_0_28_221
*888 FILLER_0_28_233
*889 FILLER_0_28_245
*890 FILLER_0_28_251
*891 FILLER_0_28_253
*892 FILLER_0_28_265
*893 FILLER_0_28_27
*894 FILLER_0_28_277
*895 FILLER_0_28_289
*896 FILLER_0_28_29
*897 FILLER_0_28_3
*898 FILLER_0_28_301
*899 FILLER_0_28_307
*900 FILLER_0_28_309
*901 FILLER_0_28_321
*902 FILLER_0_28_333
*903 FILLER_0_28_345
*904 FILLER_0_28_349
*905 FILLER_0_28_41
*906 FILLER_0_28_53
*907 FILLER_0_28_65
*908 FILLER_0_28_77
*909 FILLER_0_28_83
*910 FILLER_0_28_85
*911 FILLER_0_28_97
*912 FILLER_0_29_105
*913 FILLER_0_29_111
*914 FILLER_0_29_113
*915 FILLER_0_29_125
*916 FILLER_0_29_137
*917 FILLER_0_29_149
*918 FILLER_0_29_15
*919 FILLER_0_29_161
*920 FILLER_0_29_167
*921 FILLER_0_29_169
*922 FILLER_0_29_181
*923 FILLER_0_29_193
*924 FILLER_0_29_205
*925 FILLER_0_29_217
*926 FILLER_0_29_223
*927 FILLER_0_29_225
*928 FILLER_0_29_237
*929 FILLER_0_29_249
*930 FILLER_0_29_261
*931 FILLER_0_29_27
*932 FILLER_0_29_273
*933 FILLER_0_29_279
*934 FILLER_0_29_281
*935 FILLER_0_29_293
*936 FILLER_0_29_3
*937 FILLER_0_29_305
*938 FILLER_0_29_317
*939 FILLER_0_29_329
*940 FILLER_0_29_335
*941 FILLER_0_29_337
*942 FILLER_0_29_349
*943 FILLER_0_29_39
*944 FILLER_0_29_51
*945 FILLER_0_29_55
*946 FILLER_0_29_57
*947 FILLER_0_29_69
*948 FILLER_0_29_81
*949 FILLER_0_29_93
*950 FILLER_0_2_109
*951 FILLER_0_2_121
*952 FILLER_0_2_133
*953 FILLER_0_2_139
*954 FILLER_0_2_141
*955 FILLER_0_2_15
*956 FILLER_0_2_153
*957 FILLER_0_2_165
*958 FILLER_0_2_177
*959 FILLER_0_2_189
*960 FILLER_0_2_195
*961 FILLER_0_2_197
*962 FILLER_0_2_209
*963 FILLER_0_2_221
*964 FILLER_0_2_233
*965 FILLER_0_2_245
*966 FILLER_0_2_251
*967 FILLER_0_2_253
*968 FILLER_0_2_265
*969 FILLER_0_2_27
*970 FILLER_0_2_277
*971 FILLER_0_2_289
*972 FILLER_0_2_29
*973 FILLER_0_2_3
*974 FILLER_0_2_301
*975 FILLER_0_2_307
*976 FILLER_0_2_309
*977 FILLER_0_2_321
*978 FILLER_0_2_333
*979 FILLER_0_2_345
*980 FILLER_0_2_349
*981 FILLER_0_2_41
*982 FILLER_0_2_53
*983 FILLER_0_2_65
*984 FILLER_0_2_77
*985 FILLER_0_2_83
*986 FILLER_0_2_85
*987 FILLER_0_2_97
*988 FILLER_0_30_109
*989 FILLER_0_30_121
*990 FILLER_0_30_133
*991 FILLER_0_30_139
*992 FILLER_0_30_141
*993 FILLER_0_30_15
*994 FILLER_0_30_153
*995 FILLER_0_30_165
*996 FILLER_0_30_177
*997 FILLER_0_30_189
*998 FILLER_0_30_195
*999 FILLER_0_30_197
*1000 FILLER_0_30_209
*1001 FILLER_0_30_221
*1002 FILLER_0_30_233
*1003 FILLER_0_30_245
*1004 FILLER_0_30_251
*1005 FILLER_0_30_253
*1006 FILLER_0_30_265
*1007 FILLER_0_30_27
*1008 FILLER_0_30_277
*1009 FILLER_0_30_289
*1010 FILLER_0_30_29
*1011 FILLER_0_30_3
*1012 FILLER_0_30_301
*1013 FILLER_0_30_307
*1014 FILLER_0_30_309
*1015 FILLER_0_30_321
*1016 FILLER_0_30_333
*1017 FILLER_0_30_345
*1018 FILLER_0_30_349
*1019 FILLER_0_30_41
*1020 FILLER_0_30_53
*1021 FILLER_0_30_65
*1022 FILLER_0_30_77
*1023 FILLER_0_30_83
*1024 FILLER_0_30_85
*1025 FILLER_0_30_97
*1026 FILLER_0_31_105
*1027 FILLER_0_31_111
*1028 FILLER_0_31_113
*1029 FILLER_0_31_125
*1030 FILLER_0_31_137
*1031 FILLER_0_31_149
*1032 FILLER_0_31_15
*1033 FILLER_0_31_161
*1034 FILLER_0_31_167
*1035 FILLER_0_31_169
*1036 FILLER_0_31_181
*1037 FILLER_0_31_193
*1038 FILLER_0_31_205
*1039 FILLER_0_31_217
*1040 FILLER_0_31_223
*1041 FILLER_0_31_225
*1042 FILLER_0_31_237
*1043 FILLER_0_31_249
*1044 FILLER_0_31_261
*1045 FILLER_0_31_27
*1046 FILLER_0_31_273
*1047 FILLER_0_31_279
*1048 FILLER_0_31_281
*1049 FILLER_0_31_293
*1050 FILLER_0_31_3
*1051 FILLER_0_31_305
*1052 FILLER_0_31_317
*1053 FILLER_0_31_329
*1054 FILLER_0_31_335
*1055 FILLER_0_31_337
*1056 FILLER_0_31_349
*1057 FILLER_0_31_39
*1058 FILLER_0_31_51
*1059 FILLER_0_31_55
*1060 FILLER_0_31_57
*1061 FILLER_0_31_69
*1062 FILLER_0_31_81
*1063 FILLER_0_31_93
*1064 FILLER_0_32_105
*1065 FILLER_0_32_112
*1066 FILLER_0_32_125
*1067 FILLER_0_32_137
*1068 FILLER_0_32_15
*1069 FILLER_0_32_161
*1070 FILLER_0_32_173
*1071 FILLER_0_32_185
*1072 FILLER_0_32_193
*1073 FILLER_0_32_217
*1074 FILLER_0_32_229
*1075 FILLER_0_32_241
*1076 FILLER_0_32_249
*1077 FILLER_0_32_253
*1078 FILLER_0_32_265
*1079 FILLER_0_32_27
*1080 FILLER_0_32_277
*1081 FILLER_0_32_289
*1082 FILLER_0_32_29
*1083 FILLER_0_32_3
*1084 FILLER_0_32_301
*1085 FILLER_0_32_307
*1086 FILLER_0_32_309
*1087 FILLER_0_32_321
*1088 FILLER_0_32_333
*1089 FILLER_0_32_345
*1090 FILLER_0_32_349
*1091 FILLER_0_32_41
*1092 FILLER_0_32_53
*1093 FILLER_0_32_65
*1094 FILLER_0_32_77
*1095 FILLER_0_32_83
*1096 FILLER_0_32_85
*1097 FILLER_0_32_97
*1098 FILLER_0_33_15
*1099 FILLER_0_33_160
*1100 FILLER_0_33_190
*1101 FILLER_0_33_202
*1102 FILLER_0_33_214
*1103 FILLER_0_33_222
*1104 FILLER_0_33_225
*1105 FILLER_0_33_237
*1106 FILLER_0_33_249
*1107 FILLER_0_33_261
*1108 FILLER_0_33_27
*1109 FILLER_0_33_273
*1110 FILLER_0_33_279
*1111 FILLER_0_33_281
*1112 FILLER_0_33_293
*1113 FILLER_0_33_3
*1114 FILLER_0_33_305
*1115 FILLER_0_33_317
*1116 FILLER_0_33_329
*1117 FILLER_0_33_335
*1118 FILLER_0_33_337
*1119 FILLER_0_33_349
*1120 FILLER_0_33_39
*1121 FILLER_0_33_51
*1122 FILLER_0_33_55
*1123 FILLER_0_33_57
*1124 FILLER_0_33_69
*1125 FILLER_0_33_81
*1126 FILLER_0_33_93
*1127 FILLER_0_34_113
*1128 FILLER_0_34_119
*1129 FILLER_0_34_128
*1130 FILLER_0_34_149
*1131 FILLER_0_34_15
*1132 FILLER_0_34_163
*1133 FILLER_0_34_168
*1134 FILLER_0_34_189
*1135 FILLER_0_34_218
*1136 FILLER_0_34_230
*1137 FILLER_0_34_242
*1138 FILLER_0_34_250
*1139 FILLER_0_34_253
*1140 FILLER_0_34_265
*1141 FILLER_0_34_27
*1142 FILLER_0_34_277
*1143 FILLER_0_34_289
*1144 FILLER_0_34_29
*1145 FILLER_0_34_3
*1146 FILLER_0_34_301
*1147 FILLER_0_34_307
*1148 FILLER_0_34_309
*1149 FILLER_0_34_321
*1150 FILLER_0_34_333
*1151 FILLER_0_34_345
*1152 FILLER_0_34_349
*1153 FILLER_0_34_41
*1154 FILLER_0_34_53
*1155 FILLER_0_34_65
*1156 FILLER_0_34_77
*1157 FILLER_0_34_83
*1158 FILLER_0_34_85
*1159 FILLER_0_34_97
*1160 FILLER_0_35_113
*1161 FILLER_0_35_141
*1162 FILLER_0_35_149
*1163 FILLER_0_35_15
*1164 FILLER_0_35_158
*1165 FILLER_0_35_169
*1166 FILLER_0_35_180
*1167 FILLER_0_35_222
*1168 FILLER_0_35_252
*1169 FILLER_0_35_264
*1170 FILLER_0_35_27
*1171 FILLER_0_35_276
*1172 FILLER_0_35_281
*1173 FILLER_0_35_293
*1174 FILLER_0_35_3
*1175 FILLER_0_35_305
*1176 FILLER_0_35_317
*1177 FILLER_0_35_329
*1178 FILLER_0_35_335
*1179 FILLER_0_35_337
*1180 FILLER_0_35_349
*1181 FILLER_0_35_39
*1182 FILLER_0_35_51
*1183 FILLER_0_35_55
*1184 FILLER_0_35_57
*1185 FILLER_0_35_69
*1186 FILLER_0_35_81
*1187 FILLER_0_35_94
*1188 FILLER_0_36_104
*1189 FILLER_0_36_113
*1190 FILLER_0_36_132
*1191 FILLER_0_36_139
*1192 FILLER_0_36_145
*1193 FILLER_0_36_149
*1194 FILLER_0_36_15
*1195 FILLER_0_36_161
*1196 FILLER_0_36_185
*1197 FILLER_0_36_193
*1198 FILLER_0_36_207
*1199 FILLER_0_36_228
*1200 FILLER_0_36_253
*1201 FILLER_0_36_27
*1202 FILLER_0_36_274
*1203 FILLER_0_36_286
*1204 FILLER_0_36_29
*1205 FILLER_0_36_298
*1206 FILLER_0_36_3
*1207 FILLER_0_36_306
*1208 FILLER_0_36_309
*1209 FILLER_0_36_321
*1210 FILLER_0_36_333
*1211 FILLER_0_36_345
*1212 FILLER_0_36_349
*1213 FILLER_0_36_41
*1214 FILLER_0_36_53
*1215 FILLER_0_36_65
*1216 FILLER_0_36_77
*1217 FILLER_0_36_83
*1218 FILLER_0_37_103
*1219 FILLER_0_37_165
*1220 FILLER_0_37_169
*1221 FILLER_0_37_188
*1222 FILLER_0_37_197
*1223 FILLER_0_37_201
*1224 FILLER_0_37_217
*1225 FILLER_0_37_273
*1226 FILLER_0_37_279
*1227 FILLER_0_37_281
*1228 FILLER_0_37_29
*1229 FILLER_0_37_293
*1230 FILLER_0_37_3
*1231 FILLER_0_37_305
*1232 FILLER_0_37_309
*1233 FILLER_0_37_321
*1234 FILLER_0_37_326
*1235 FILLER_0_37_330
*1236 FILLER_0_37_334
*1237 FILLER_0_37_337
*1238 FILLER_0_37_349
*1239 FILLER_0_37_38
*1240 FILLER_0_37_46
*1241 FILLER_0_37_54
*1242 FILLER_0_37_63
*1243 FILLER_0_37_70
*1244 FILLER_0_37_85
*1245 FILLER_0_37_89
*1246 FILLER_0_37_9
*1247 FILLER_0_37_96
*1248 FILLER_0_3_105
*1249 FILLER_0_3_111
*1250 FILLER_0_3_113
*1251 FILLER_0_3_125
*1252 FILLER_0_3_137
*1253 FILLER_0_3_149
*1254 FILLER_0_3_15
*1255 FILLER_0_3_161
*1256 FILLER_0_3_167
*1257 FILLER_0_3_169
*1258 FILLER_0_3_181
*1259 FILLER_0_3_193
*1260 FILLER_0_3_205
*1261 FILLER_0_3_217
*1262 FILLER_0_3_223
*1263 FILLER_0_3_225
*1264 FILLER_0_3_237
*1265 FILLER_0_3_249
*1266 FILLER_0_3_261
*1267 FILLER_0_3_27
*1268 FILLER_0_3_273
*1269 FILLER_0_3_279
*1270 FILLER_0_3_281
*1271 FILLER_0_3_293
*1272 FILLER_0_3_3
*1273 FILLER_0_3_305
*1274 FILLER_0_3_317
*1275 FILLER_0_3_329
*1276 FILLER_0_3_335
*1277 FILLER_0_3_337
*1278 FILLER_0_3_349
*1279 FILLER_0_3_39
*1280 FILLER_0_3_51
*1281 FILLER_0_3_55
*1282 FILLER_0_3_57
*1283 FILLER_0_3_69
*1284 FILLER_0_3_81
*1285 FILLER_0_3_93
*1286 FILLER_0_4_109
*1287 FILLER_0_4_121
*1288 FILLER_0_4_133
*1289 FILLER_0_4_139
*1290 FILLER_0_4_141
*1291 FILLER_0_4_15
*1292 FILLER_0_4_153
*1293 FILLER_0_4_165
*1294 FILLER_0_4_177
*1295 FILLER_0_4_189
*1296 FILLER_0_4_195
*1297 FILLER_0_4_197
*1298 FILLER_0_4_209
*1299 FILLER_0_4_221
*1300 FILLER_0_4_233
*1301 FILLER_0_4_245
*1302 FILLER_0_4_251
*1303 FILLER_0_4_253
*1304 FILLER_0_4_265
*1305 FILLER_0_4_27
*1306 FILLER_0_4_277
*1307 FILLER_0_4_289
*1308 FILLER_0_4_29
*1309 FILLER_0_4_3
*1310 FILLER_0_4_301
*1311 FILLER_0_4_307
*1312 FILLER_0_4_309
*1313 FILLER_0_4_321
*1314 FILLER_0_4_333
*1315 FILLER_0_4_345
*1316 FILLER_0_4_349
*1317 FILLER_0_4_41
*1318 FILLER_0_4_53
*1319 FILLER_0_4_65
*1320 FILLER_0_4_77
*1321 FILLER_0_4_83
*1322 FILLER_0_4_85
*1323 FILLER_0_4_97
*1324 FILLER_0_5_105
*1325 FILLER_0_5_111
*1326 FILLER_0_5_113
*1327 FILLER_0_5_125
*1328 FILLER_0_5_137
*1329 FILLER_0_5_149
*1330 FILLER_0_5_15
*1331 FILLER_0_5_161
*1332 FILLER_0_5_167
*1333 FILLER_0_5_169
*1334 FILLER_0_5_181
*1335 FILLER_0_5_193
*1336 FILLER_0_5_205
*1337 FILLER_0_5_217
*1338 FILLER_0_5_223
*1339 FILLER_0_5_225
*1340 FILLER_0_5_237
*1341 FILLER_0_5_249
*1342 FILLER_0_5_261
*1343 FILLER_0_5_27
*1344 FILLER_0_5_273
*1345 FILLER_0_5_279
*1346 FILLER_0_5_281
*1347 FILLER_0_5_293
*1348 FILLER_0_5_3
*1349 FILLER_0_5_305
*1350 FILLER_0_5_317
*1351 FILLER_0_5_329
*1352 FILLER_0_5_335
*1353 FILLER_0_5_337
*1354 FILLER_0_5_349
*1355 FILLER_0_5_39
*1356 FILLER_0_5_51
*1357 FILLER_0_5_55
*1358 FILLER_0_5_57
*1359 FILLER_0_5_69
*1360 FILLER_0_5_81
*1361 FILLER_0_5_93
*1362 FILLER_0_6_109
*1363 FILLER_0_6_121
*1364 FILLER_0_6_133
*1365 FILLER_0_6_139
*1366 FILLER_0_6_141
*1367 FILLER_0_6_15
*1368 FILLER_0_6_153
*1369 FILLER_0_6_165
*1370 FILLER_0_6_177
*1371 FILLER_0_6_189
*1372 FILLER_0_6_195
*1373 FILLER_0_6_197
*1374 FILLER_0_6_209
*1375 FILLER_0_6_221
*1376 FILLER_0_6_233
*1377 FILLER_0_6_245
*1378 FILLER_0_6_251
*1379 FILLER_0_6_253
*1380 FILLER_0_6_265
*1381 FILLER_0_6_27
*1382 FILLER_0_6_277
*1383 FILLER_0_6_289
*1384 FILLER_0_6_29
*1385 FILLER_0_6_3
*1386 FILLER_0_6_301
*1387 FILLER_0_6_307
*1388 FILLER_0_6_309
*1389 FILLER_0_6_321
*1390 FILLER_0_6_333
*1391 FILLER_0_6_345
*1392 FILLER_0_6_349
*1393 FILLER_0_6_41
*1394 FILLER_0_6_53
*1395 FILLER_0_6_65
*1396 FILLER_0_6_77
*1397 FILLER_0_6_83
*1398 FILLER_0_6_85
*1399 FILLER_0_6_97
*1400 FILLER_0_7_105
*1401 FILLER_0_7_111
*1402 FILLER_0_7_113
*1403 FILLER_0_7_125
*1404 FILLER_0_7_137
*1405 FILLER_0_7_149
*1406 FILLER_0_7_15
*1407 FILLER_0_7_161
*1408 FILLER_0_7_167
*1409 FILLER_0_7_169
*1410 FILLER_0_7_181
*1411 FILLER_0_7_193
*1412 FILLER_0_7_205
*1413 FILLER_0_7_217
*1414 FILLER_0_7_223
*1415 FILLER_0_7_225
*1416 FILLER_0_7_237
*1417 FILLER_0_7_249
*1418 FILLER_0_7_261
*1419 FILLER_0_7_27
*1420 FILLER_0_7_273
*1421 FILLER_0_7_279
*1422 FILLER_0_7_281
*1423 FILLER_0_7_293
*1424 FILLER_0_7_3
*1425 FILLER_0_7_305
*1426 FILLER_0_7_317
*1427 FILLER_0_7_329
*1428 FILLER_0_7_335
*1429 FILLER_0_7_337
*1430 FILLER_0_7_349
*1431 FILLER_0_7_39
*1432 FILLER_0_7_51
*1433 FILLER_0_7_55
*1434 FILLER_0_7_57
*1435 FILLER_0_7_69
*1436 FILLER_0_7_81
*1437 FILLER_0_7_93
*1438 FILLER_0_8_109
*1439 FILLER_0_8_121
*1440 FILLER_0_8_133
*1441 FILLER_0_8_139
*1442 FILLER_0_8_141
*1443 FILLER_0_8_15
*1444 FILLER_0_8_153
*1445 FILLER_0_8_165
*1446 FILLER_0_8_177
*1447 FILLER_0_8_189
*1448 FILLER_0_8_195
*1449 FILLER_0_8_197
*1450 FILLER_0_8_209
*1451 FILLER_0_8_221
*1452 FILLER_0_8_233
*1453 FILLER_0_8_245
*1454 FILLER_0_8_251
*1455 FILLER_0_8_253
*1456 FILLER_0_8_265
*1457 FILLER_0_8_27
*1458 FILLER_0_8_277
*1459 FILLER_0_8_289
*1460 FILLER_0_8_29
*1461 FILLER_0_8_3
*1462 FILLER_0_8_301
*1463 FILLER_0_8_307
*1464 FILLER_0_8_309
*1465 FILLER_0_8_321
*1466 FILLER_0_8_333
*1467 FILLER_0_8_345
*1468 FILLER_0_8_349
*1469 FILLER_0_8_41
*1470 FILLER_0_8_53
*1471 FILLER_0_8_65
*1472 FILLER_0_8_77
*1473 FILLER_0_8_83
*1474 FILLER_0_8_85
*1475 FILLER_0_8_97
*1476 FILLER_0_9_105
*1477 FILLER_0_9_111